
*** ChampSim Multicore Out-of-Order Simulator ***

Warmup Instructions: 1000000
Simulation Instructions: 10000000
Number of CPUs: 1
LLC sets: 2048
LLC ways: 16
Off-chip DRAM Size: 4096 MB Channels: 1 Width: 64-bit Data Rate: 3200 MT/s

CPU 0 runs /Users/kyama/caras/ChampSim/dpc3_traces/400.perlbench-41B.champsimtrace.xz
CPU 0 Bimodal branch predictor

Warmup complete CPU 0 instructions: 1000001 cycles: 464596 (Simulation time: 0 hr 0 min 1 sec) 

[LLC] lru_victim instr_id: 6749263 replace set: 1766 way: 1 address: 14751e1c6e6 victim address: 172d07746e6 data: 0 lru: 15 dirty:
[LLC] lru_victim instr_id: 6788601 replace set: 1587 way: 0 address: 14751e1ce33 victim address: 172d0771e33 data: 0 lru: 15 dirty:
[LLC] lru_victim instr_id: 6792969 replace set: 1587 way: 1 address: 1fc0cbaae33 victim address: 172d0773633 data: 0 lru: 15 dirty:
[LLC] lru_victim instr_id: 6842314 replace set: 914 way: 0 address: 14751e1b392 victim address: 172d0773b92 data: 0 lru: 15 dirty:
[LLC] lru_victim instr_id: 6859251 replace set: 914 way: 1 address: cec1c96b92 victim address: 172d0773392 data: 0 lru: 15 dirty:
[LLC] lru_victim instr_id: 6932996 replace set: 1587 way: 2 address: 1fc0cba5e33 victim address: 172d0774633 data: 0 lru: 15 dirty:
[LLC] lru_victim instr_id: 6933012 replace set: 1588 way: 0 address: 1fc0cba5e34 victim address: 172d0773634 data: 0 lru: 15 dirty:
[LLC] lru_victim instr_id: 6958995 replace set: 1587 way: 3 address: 14751e1de33 victim address: 172d0773e33 data: 0 lru: 15 dirty:
[LLC] lru_victim instr_id: 7309045 replace set: 688 way: 0 address: 18593fccab0 victim address: 172d07712b0 data: 0 lru: 15 dirty:
[LLC] lru_victim instr_id: 7361009 replace set: 916 way: 0 address: 1fc0cba6394 victim address: 172d0773b94 data: 0 lru: 15 dirty:
[LLC] lru_victim instr_id: 7361044 replace set: 914 way: 2 address: 1fc0cba6392 victim address: 172d0775392 data: 0 lru: 15 dirty:
[LLC] lru_victim instr_id: 7404613 replace set: 196 way: 1 address: c10ab8b0c4 victim address: 172d07740c4 data: 0 lru: 15 dirty:
[LLC] lru_victim instr_id: 7406468 replace set: 218 way: 0 address: c10ab8b0da victim address: 172d07710da data: 0 lru: 15 dirty:
[LLC] lru_victim instr_id: 7430693 replace set: 196 way: 2 address: 172d07730c4 victim address: 172d07750c4 data: 0 lru: 15 dirty:
[LLC] lru_victim instr_id: 7432234 replace set: 914 way: 7 address: 18593fcd392 victim address: 1fc0cba5392 data: 0 lru: 15 dirty:
[LLC] lru_victim instr_id: 7432293 replace set: 916 way: 1 address: 18593fcd394 victim address: 172d0774b94 data: 0 lru: 15 dirty:
[LLC] lru_victim instr_id: 7433801 replace set: 201 way: 0 address: 172d07730c9 victim address: 172d07740c9 data: 0 lru: 15 dirty:
[LLC] lru_victim instr_id: 7437491 replace set: 1611 way: 3 address: 18593fcd64b victim address: 172d077764b data: 0 lru: 15 dirty:
[LLC] lru_victim instr_id: 7458589 replace set: 1688 way: 0 address: c10ab89e98 victim address: 30f903e6698 data: 0 lru: 15 dirty:
[LLC] lru_victim instr_id: 7491252 replace set: 201 way: 2 address: 172d07778c9 victim address: 172d07750c9 data: 0 lru: 15 dirty:
[LLC] lru_victim instr_id: 7507978 replace set: 1154 way: 0 address: c10ab89c82 victim address: 172d0772c82 data: 0 lru: 15 dirty:
[LLC] lru_victim instr_id: 7513469 replace set: 688 way: 1 address: 18593fcdab0 victim address: 172d0773ab0 data: 0 lru: 15 dirty:
[LLC] lru_victim instr_id: 7521043 replace set: 1155 way: 0 address: 18593fcdc83 victim address: 172d0772c83 data: 0 lru: 15 dirty:
[LLC] lru_victim instr_id: 7524013 replace set: 993 way: 1 address: 18593fcdbe1 victim address: 172d07713e1 data: 0 lru: 15 dirty:
[LLC] lru_victim instr_id: 7526572 replace set: 1673 way: 8 address: 18593fcde89 victim address: c10ab85e89 data: 0 lru: 15 dirty:
[LLC] lru_victim instr_id: 7527770 replace set: 1688 way: 1 address: 18593fcde98 victim address: 172d0771e98 data: 0 lru: 15 dirty:
[LLC] lru_victim instr_id: 7530275 replace set: 1699 way: 0 address: 18593fcdea3 victim address: 172d07736a3 data: 0 lru: 15 dirty:
[LLC] lru_victim instr_id: 7537171 replace set: 858 way: 1 address: 18593fce35a victim address: 172d0772b5a data: 0 lru: 15 dirty:
[LLC] lru_victim instr_id: 7537972 replace set: 855 way: 2 address: 18593fce357 victim address: 172d0772b57 data: 0 lru: 15 dirty:
[LLC] lru_victim instr_id: 7538303 replace set: 860 way: 0 address: 18593fce35c victim address: 172d0772b5c data: 0 lru: 15 dirty:
[LLC] lru_victim instr_id: 7547779 replace set: 1763 way: 0 address: 18593fce6e3 victim address: 172d07746e3 data: 0 lru: 15 dirty:
[LLC] lru_victim instr_id: 7548142 replace set: 1766 way: 2 address: 18593fce6e6 victim address: 172d0774ee6 data: 0 lru: 15 dirty:
[LLC] lru_victim instr_id: 7551439 replace set: 145 way: 1 address: 18593fce891 victim address: 172d0774891 data: 0 lru: 15 dirty:
[LLC] lru_victim instr_id: 7559200 replace set: 688 way: 2 address: 18593fceab0 victim address: 172d07752b0 data: 0 lru: 15 dirty:
[LLC] lru_victim instr_id: 7562663 replace set: 856 way: 0 address: 172d0778b58 victim address: 172d0772b58 data: 0 lru: 15 dirty:
[LLC] lru_victim instr_id: 7565988 replace set: 1750 way: 0 address: 18593fce6d6 victim address: 172d07726d6 data: 0 lru: 15 dirty:
[LLC] lru_victim instr_id: 7567282 replace set: 1676 way: 0 address: 18593fcee8c victim address: 172d0773e8c data: 0 lru: 15 dirty:
[LLC] lru_victim instr_id: 7567988 replace set: 1731 way: 0 address: 18593fceec3 victim address: 172d0772ec3 data: 0 lru: 15 dirty:
[LLC] lru_victim instr_id: 7569012 replace set: 1743 way: 0 address: 18593fceecf victim address: 172d07726cf data: 0 lru: 15 dirty:
[LLC] lru_victim instr_id: 7569103 replace set: 1745 way: 0 address: 18593fceed1 victim address: 172d07746d1 data: 0 lru: 15 dirty:
[LLC] lru_victim instr_id: 7569469 replace set: 1746 way: 1 address: 18593fceed2 victim address: 172d07746d2 data: 0 lru: 15 dirty:
[LLC] lru_victim instr_id: 7570321 replace set: 1178 way: 0 address: 18593fce49a victim address: 172d077349a data: 0 lru: 15 dirty:
[LLC] lru_victim instr_id: 7570452 replace set: 1758 way: 0 address: 18593fceede victim address: 172d07726de data: 0 lru: 15 dirty:
[LLC] lru_victim instr_id: 7570740 replace set: 1766 way: 4 address: 18593fceee6 victim address: 172d07756e6 data: 0 lru: 15 dirty:
[LLC] lru_victim instr_id: 7570796 replace set: 1763 way: 1 address: 18593fceee3 victim address: 172d0774ee3 data: 0 lru: 15 dirty:
[LLC] lru_victim instr_id: 7571123 replace set: 1770 way: 0 address: 18593fceeea victim address: 172d07716ea data: 0 lru: 15 dirty:
[LLC] lru_victim instr_id: 7575335 replace set: 341 way: 1 address: 18593fcf155 victim address: 172d0774955 data: 0 lru: 15 dirty:
[LLC] lru_victim instr_id: 7582959 replace set: 145 way: 2 address: 172d0772091 victim address: 172d0775091 data: 0 lru: 15 dirty:
[LLC] lru_victim instr_id: 7585187 replace set: 1154 way: 1 address: 18593fcf482 victim address: 172d0776482 data: 0 lru: 15 dirty:
[LLC] lru_victim instr_id: 7585210 replace set: 1155 way: 1 address: 18593fcf483 victim address: 172d0776483 data: 0 lru: 15 dirty:
[LLC] lru_victim instr_id: 7586836 replace set: 1178 way: 1 address: 18593fcf49a victim address: 172d0772c9a data: 0 lru: 15 dirty:
[LLC] lru_victim instr_id: 7594253 replace set: 1588 way: 1 address: 18593fcf634 victim address: 172d0773e34 data: 0 lru: 15 dirty:
[LLC] lru_victim instr_id: 7594318 replace set: 1587 way: 4 address: 18593fcf633 victim address: 172d0775633 data: 0 lru: 15 dirty:
[LLC] lru_victim instr_id: 7594572 replace set: 1594 way: 0 address: 18593fcf63a victim address: 172d077463a data: 0 lru: 15 dirty:
[LLC] lru_victim instr_id: 7596133 replace set: 1688 way: 2 address: 172d0771e98 victim address: 1fc0cba5e98 data: 0 lru: 15 dirty:
[LLC] lru_victim instr_id: 7597983 replace set: 993 way: 2 address: 18593fcebe1 victim address: 172d07733e1 data: 0 lru: 15 dirty:
[LLC] lru_victim instr_id: 7598159 replace set: 1588 way: 2 address: c10ab89634 victim address: 172d0775634 data: 0 lru: 15 dirty:
[LLC] lru_victim instr_id: 7614760 replace set: 23 way: 0 address: c10ab8a817 victim address: 172d0771817 data: 0 lru: 15 dirty:
[LLC] lru_victim instr_id: 7619833 replace set: 1302 way: 0 address: 18593fcfd16 victim address: 172d0772d16 data: 0 lru: 15 dirty:
[LLC] lru_victim instr_id: 7623205 replace set: 1602 way: 0 address: 18593fcfe42 victim address: 172d0774642 data: 0 lru: 15 dirty:
[LLC] lru_victim instr_id: 7624174 replace set: 1611 way: 4 address: 18593fcfe4b victim address: 172d0778e4b data: 0 lru: 15 dirty:
[LLC] lru_victim instr_id: 7624704 replace set: 1745 way: 1 address: 18593fcfed1 victim address: 172d0774ed1 data: 0 lru: 15 dirty:
[LLC] lru_victim instr_id: 7626066 replace set: 1637 way: 0 address: 18593fcfe65 victim address: 172d0771665 data: 0 lru: 15 dirty:
[LLC] lru_victim instr_id: 7626203 replace set: 1639 way: 0 address: 18593fcfe67 victim address: 172d0771667 data: 0 lru: 15 dirty:
[LLC] lru_victim instr_id: 7626429 replace set: 1641 way: 0 address: 18593fcfe69 victim address: 172d0771669 data: 0 lru: 15 dirty:
[LLC] lru_victim instr_id: 7626841 replace set: 1643 way: 0 address: 18593fcfe6b victim address: 172d077166b data: 0 lru: 15 dirty:
[LLC] lru_victim instr_id: 7627118 replace set: 1651 way: 1 address: 18593fcfe73 victim address: 172d0773e73 data: 0 lru: 15 dirty:
[LLC] lru_victim instr_id: 7631731 replace set: 1407 way: 1 address: 14751e1b57f victim address: 172d077457f data: 0 lru: 15 dirty:
[LLC] lru_victim instr_id: 7635204 replace set: 341 way: 2 address: 18593fd0155 victim address: 172d0775955 data: 0 lru: 15 dirty:
[LLC] lru_victim instr_id: 7638948 replace set: 644 way: 2 address: 18593fd0284 victim address: 172d0774284 data: 0 lru: 15 dirty:
[LLC] lru_victim instr_id: 7639311 replace set: 650 way: 1 address: 18593fd028a victim address: 172d0773a8a data: 0 lru: 15 dirty:
[LLC] lru_victim instr_id: 7644936 replace set: 1639 way: 1 address: 18593fcf667 victim address: 172d0773e67 data: 0 lru: 15 dirty:
[LLC] lru_victim instr_id: 7645259 replace set: 860 way: 1 address: 18593fd035c victim address: 172d0774b5c data: 0 lru: 15 dirty:
[LLC] lru_victim instr_id: 7645726 replace set: 855 way: 3 address: 18593fd0357 victim address: 172d0774b57 data: 0 lru: 15 dirty:
[LLC] lru_victim instr_id: 7646045 replace set: 858 way: 2 address: 18593fd035a victim address: 172d0774b5a data: 0 lru: 15 dirty:
[LLC] lru_victim instr_id: 7646078 replace set: 859 way: 0 address: 18593fd035b victim address: 172d0772b5b data: 0 lru: 15 dirty:
[LLC] lru_victim instr_id: 7646087 replace set: 856 way: 1 address: 18593fd0358 victim address: 172d0774b58 data: 0 lru: 15 dirty:
[LLC] lru_victim instr_id: 7646418 replace set: 862 way: 0 address: 18593fd035e victim address: 172d0772b5e data: 0 lru: 15 dirty:
[LLC] lru_victim instr_id: 7649432 replace set: 1283 way: 0 address: 18593fd0503 victim address: 172d0774503 data: 0 lru: 15 dirty:
[LLC] lru_victim instr_id: 7649735 replace set: 1287 way: 0 address: 18593fd0507 victim address: 172d0771507 data: 0 lru: 15 dirty:
[LLC] lru_victim instr_id: 7650376 replace set: 1298 way: 1 address: 18593fd0512 victim address: 172d0773512 data: 0 lru: 15 dirty:
[LLC] lru_victim instr_id: 7650756 replace set: 1302 way: 1 address: 18593fd0516 victim address: 172d0773516 data: 0 lru: 15 dirty:
[LLC] lru_victim instr_id: 7652105 replace set: 1315 way: 2 address: 18593fd0523 victim address: 172d0773523 data: 0 lru: 15 dirty:
[LLC] lru_victim instr_id: 7652784 replace set: 1718 way: 0 address: 18593fceeb6 victim address: 1fc0cba5eb6 data: 0 lru: 15 dirty:
[LLC] lru_victim instr_id: 7654219 replace set: 1716 way: 0 address: 18593fceeb4 victim address: 172d07756b4 data: 0 lru: 15 dirty:
[LLC] lru_victim instr_id: 7654368 replace set: 1731 way: 1 address: 18593fd06c3 victim address: 172d07736c3 data: 0 lru: 15 dirty:
[LLC] lru_victim instr_id: 7655406 replace set: 1743 way: 1 address: 18593fd06cf victim address: 172d07746cf data: 0 lru: 15 dirty:
[LLC] lru_victim instr_id: 7655422 replace set: 1744 way: 1 address: 18593fd06d0 victim address: 172d07746d0 data: 0 lru: 15 dirty:
[LLC] lru_victim instr_id: 7655520 replace set: 1742 way: 0 address: 18593fd06ce victim address: 172d07726ce data: 0 lru: 15 dirty:
[LLC] lru_victim instr_id: 7655543 replace set: 1745 way: 2 address: 18593fd06d1 victim address: 172d07756d1 data: 0 lru: 15 dirty:
[LLC] lru_victim instr_id: 7655769 replace set: 1747 way: 1 address: 18593fd06d3 victim address: 172d07746d3 data: 0 lru: 15 dirty:
[LLC] lru_victim instr_id: 7655823 replace set: 1746 way: 2 address: 18593fd06d2 victim address: 172d0774ed2 data: 0 lru: 15 dirty:
[LLC] lru_victim instr_id: 7656249 replace set: 1749 way: 0 address: 18593fd06d5 victim address: 172d07746d5 data: 0 lru: 15 dirty:
[LLC] lru_victim instr_id: 7656272 replace set: 1750 way: 1 address: 18593fd06d6 victim address: 172d07746d6 data: 0 lru: 15 dirty:
[LLC] lru_victim instr_id: 7656439 replace set: 1766 way: 5 address: 18593fd06e6 victim address: 1fc0cba66e6 data: 0 lru: 15 dirty:
[LLC] lru_victim instr_id: 7656603 replace set: 1758 way: 1 address: 18593fd06de victim address: 172d0774ede data: 0 lru: 15 dirty:
[LLC] lru_victim instr_id: 7657264 replace set: 1763 way: 3 address: 18593fd06e3 victim address: 1fc0cba2ee3 data: 0 lru: 15 dirty:
[LLC] lru_victim instr_id: 7657458 replace set: 1768 way: 0 address: 18593fd06e8 victim address: 172d07716e8 data: 0 lru: 15 dirty:
[LLC] lru_victim instr_id: 7657572 replace set: 1767 way: 0 address: 18593fd06e7 victim address: 172d07746e7 data: 0 lru: 15 dirty:
[LLC] lru_victim instr_id: 7657595 replace set: 1770 way: 1 address: 18593fd06ea victim address: 172d07746ea data: 0 lru: 15 dirty:
[LLC] lru_victim instr_id: 7658115 replace set: 995 way: 0 address: 18593fccbe3 victim address: 172d07713e3 data: 0 lru: 15 dirty:
[LLC] lru_victim instr_id: 7659205 replace set: 1789 way: 0 address: 18593fd06fd victim address: 172d0773efd data: 0 lru: 15 dirty:
[LLC] lru_victim instr_id: 7659464 replace set: 129 way: 0 address: 18593fd0881 victim address: 172d0772881 data: 0 lru: 15 dirty:
[LLC] lru_victim instr_id: 7660856 replace set: 145 way: 3 address: 18593fd0891 victim address: 1fc0cba3891 data: 0 lru: 15 dirty:
[LLC] lru_victim instr_id: 7660918 replace set: 1708 way: 3 address: 18593fceeac victim address: 1fc0cba6eac data: 0 lru: 15 dirty:
[LLC] lru_victim instr_id: 7672550 replace set: 1699 way: 1 address: 18593fceea3 victim address: 172d0775ea3 data: 0 lru: 15 dirty:
[LLC] lru_victim instr_id: 7672726 replace set: 865 way: 1 address: c10ab8bb61 victim address: 172d0772b61 data: 0 lru: 15 dirty:
[LLC] lru_victim instr_id: 7673140 replace set: 1155 way: 2 address: 18593fd0c83 victim address: 1fc0cba4c83 data: 0 lru: 15 dirty:
[LLC] lru_victim instr_id: 7673151 replace set: 1156 way: 0 address: 18593fd0c84 victim address: 172d0772c84 data: 0 lru: 15 dirty:
[LLC] lru_victim instr_id: 7675064 replace set: 1179 way: 0 address: 18593fd0c9b victim address: 172d077349b data: 0 lru: 15 dirty:
[LLC] lru_victim instr_id: 7675178 replace set: 1178 way: 2 address: 18593fd0c9a victim address: 172d077549a data: 0 lru: 15 dirty:
[LLC] lru_victim instr_id: 7675729 replace set: 1772 way: 0 address: c10ab8beec victim address: 172d07716ec data: 0 lru: 15 dirty:
[LLC] lru_victim instr_id: 7677536 replace set: 1209 way: 0 address: 18593fd0cb9 victim address: 172d0773cb9 data: 0 lru: 15 dirty:
[LLC] lru_victim instr_id: 7678172 replace set: 1728 way: 0 address: 18593fd0ec0 victim address: 172d07736c0 data: 0 lru: 15 dirty:
[LLC] lru_victim instr_id: 7678195 replace set: 1730 way: 0 address: 18593fd0ec2 victim address: 172d07736c2 data: 0 lru: 15 dirty:
[LLC] lru_victim instr_id: 7678275 replace set: 1731 way: 2 address: 18593fd0ec3 victim address: 172d0774ec3 data: 0 lru: 15 dirty:
[LLC] lru_victim instr_id: 7678857 replace set: 1737 way: 0 address: 18593fd0ec9 victim address: 172d07726c9 data: 0 lru: 15 dirty:
[LLC] lru_victim instr_id: 7679176 replace set: 1742 way: 1 address: 18593fd0ece victim address: 172d07746ce data: 0 lru: 15 dirty:
[LLC] lru_victim instr_id: 7679253 replace set: 1743 way: 2 address: 18593fd0ecf victim address: 172d07756cf data: 0 lru: 15 dirty:
[LLC] lru_victim instr_id: 7679479 replace set: 1745 way: 3 address: 18593fd0ed1 victim address: 172d0778ed1 data: 0 lru: 15 dirty:
[LLC] lru_victim instr_id: 7679533 replace set: 1744 way: 2 address: 18593fd0ed0 victim address: 172d0774ed0 data: 0 lru: 15 dirty:
[LLC] lru_victim instr_id: 7679556 replace set: 1746 way: 0 address: 18593fd0ed2 victim address: 172d07726d2 data: 0 lru: 15 dirty:
[LLC] lru_victim instr_id: 7679855 replace set: 1749 way: 1 address: 18593fd0ed5 victim address: 172d07756d5 data: 0 lru: 15 dirty:
[LLC] lru_victim instr_id: 7679897 replace set: 1747 way: 2 address: 18593fd0ed3 victim address: 172d0774ed3 data: 0 lru: 15 dirty:
[LLC] lru_victim instr_id: 7680087 replace set: 1763 way: 7 address: 18593fd0ee3 victim address: c10ab85ee3 data: 0 lru: 15 dirty:
[LLC] lru_victim instr_id: 7680488 replace set: 1758 way: 2 address: 18593fd0ede victim address: 30f903e6ede data: 0 lru: 15 dirty:
[LLC] lru_victim instr_id: 7681112 replace set: 1766 way: 0 address: 18593fd0ee6 victim address: 172d07726e6 data: 0 lru: 15 dirty:
[LLC] lru_victim instr_id: 7681172 replace set: 1767 way: 1 address: 18593fd0ee7 victim address: 172d0774ee7 data: 0 lru: 15 dirty:
[LLC] lru_victim instr_id: 7681249 replace set: 1768 way: 1 address: 18593fd0ee8 victim address: 172d07746e8 data: 0 lru: 15 dirty:
[LLC] lru_victim instr_id: 7681475 replace set: 1770 way: 2 address: 18593fd0eea victim address: 172d0774eea data: 0 lru: 15 dirty:
[LLC] lru_victim instr_id: 7681529 replace set: 1769 way: 0 address: 18593fd0ee9 victim address: 172d07716e9 data: 0 lru: 15 dirty:
[LLC] lru_victim instr_id: 7681574 replace set: 1688 way: 4 address: 18593fcee98 victim address: 172d0772698 data: 0 lru: 15 dirty:
[LLC] lru_victim instr_id: 7681909 replace set: 1772 way: 1 address: 18593fd0eec victim address: 172d0774eec data: 0 lru: 15 dirty:
[LLC] lru_victim instr_id: 7682859 replace set: 1786 way: 0 address: 18593fd0efa victim address: 172d07716fa data: 0 lru: 15 dirty:
[LLC] lru_victim instr_id: 7683725 replace set: 1403 way: 0 address: 1fc0cba3d7b victim address: 172d077657b data: 0 lru: 15 dirty:
[LLC] lru_victim instr_id: 7683761 replace set: 144 way: 1 address: 18593fd1090 victim address: 172d0773890 data: 0 lru: 15 dirty:
[LLC] lru_victim instr_id: 7683785 replace set: 1404 way: 0 address: 1fc0cba3d7c victim address: 172d077657c data: 0 lru: 15 dirty:
[LLC] lru_victim instr_id: 7684689 replace set: 1403 way: 1 address: c10ab8757b victim address: 172d077257b data: 0 lru: 15 dirty:
[LLC] lru_victim instr_id: 7688154 replace set: 125 way: 0 address: 18593fd107d victim address: 172d077287d data: 0 lru: 15 dirty:
[LLC] lru_victim instr_id: 7688177 replace set: 127 way: 0 address: 18593fd107f victim address: 172d077487f data: 0 lru: 15 dirty:
[LLC] lru_victim instr_id: 7691142 replace set: 420 way: 1 address: 18593fd11a4 victim address: 172d07749a4 data: 0 lru: 15 dirty:
[LLC] lru_victim instr_id: 7691219 replace set: 421 way: 0 address: 18593fd11a5 victim address: 172d07741a5 data: 0 lru: 15 dirty:
[LLC] lru_victim instr_id: 7691720 replace set: 421 way: 1 address: 1fc0cba79a5 victim address: 172d07749a5 data: 0 lru: 15 dirty:
[LLC] lru_victim instr_id: 7691886 replace set: 426 way: 0 address: 18593fd11aa victim address: 172d07711aa data: 0 lru: 15 dirty:
[LLC] lru_victim instr_id: 7692732 replace set: 421 way: 2 address: 1fc0cba69a5 victim address: 172d07751a5 data: 0 lru: 15 dirty:
[LLC] lru_victim instr_id: 7692738 replace set: 1639 way: 4 address: 14751e1d667 victim address: 1fc0cba5667 data: 0 lru: 15 dirty:
[LLC] lru_victim instr_id: 7693767 replace set: 1009 way: 0 address: 18593fccbf1 victim address: 172d07753f1 data: 0 lru: 15 dirty:
[LLC] lru_victim instr_id: 7694756 replace set: 1730 way: 1 address: 14751e1cec2 victim address: 172d07746c2 data: 0 lru: 15 dirty:
[LLC] lru_victim instr_id: 7694763 replace set: 1731 way: 3 address: 14751e1cec3 victim address: 172d07756c3 data: 0 lru: 15 dirty:
[LLC] lru_victim instr_id: 7699093 replace set: 913 way: 0 address: 18593fd1391 victim address: 172d0773b91 data: 0 lru: 15 dirty:
[LLC] lru_victim instr_id: 7700118 replace set: 916 way: 2 address: 18593fd1394 victim address: 172d0773394 data: 0 lru: 15 dirty:
[LLC] lru_victim instr_id: 7700245 replace set: 914 way: 8 address: 18593fd1392 victim address: f3b8ff3b92 data: 0 lru: 15 dirty:
[LLC] lru_victim instr_id: 7700857 replace set: 923 way: 0 address: 18593fd139b victim address: 172d077139b data: 0 lru: 15 dirty:
[LLC] lru_victim instr_id: 7701089 replace set: 938 way: 0 address: 18593fd13aa victim address: 172d07713aa data: 0 lru: 15 dirty:
[LLC] lru_victim instr_id: 7701849 replace set: 936 way: 0 address: 18593fd13a8 victim address: 172d07713a8 data: 0 lru: 15 dirty:
[LLC] lru_victim instr_id: 7702752 replace set: 1302 way: 3 address: 1fc0cba9516 victim address: 172d0774516 data: 0 lru: 15 dirty:
[LLC] lru_victim instr_id: 7709437 replace set: 1729 way: 0 address: 18593fd16c1 victim address: 172d07736c1 data: 0 lru: 15 dirty:
[LLC] lru_victim instr_id: 7711423 replace set: 1673 way: 9 address: 18593fcee89 victim address: c10ab88689 data: 0 lru: 15 dirty:
[LLC] lru_victim instr_id: 7711771 replace set: 1588 way: 3 address: 18593fd1634 victim address: 172d0771e34 data: 0 lru: 15 dirty:
[LLC] lru_victim instr_id: 7711885 replace set: 1587 way: 5 address: 18593fd1633 victim address: 1fc0cbaa633 data: 0 lru: 15 dirty:
[LLC] lru_victim instr_id: 7711908 replace set: 1590 way: 0 address: 18593fd1636 victim address: 172d0773e36 data: 0 lru: 15 dirty:
[LLC] lru_victim instr_id: 7712562 replace set: 1594 way: 1 address: 18593fd163a victim address: 172d0773e3a data: 0 lru: 15 dirty:
[LLC] lru_victim instr_id: 7712943 replace set: 1446 way: 0 address: 18593fd0da6 victim address: 172d0774da6 data: 0 lru: 15 dirty:
[LLC] lru_victim instr_id: 7718165 replace set: 23 way: 1 address: 18593fd1817 victim address: 1fc0cba4817 data: 0 lru: 15 dirty:
[LLC] lru_victim instr_id: 7727229 replace set: 117 way: 0 address: 1fc0cba8875 victim address: 172d0774875 data: 0 lru: 15 dirty:
[LLC] lru_victim instr_id: 7727407 replace set: 116 way: 0 address: 18593fd1874 victim address: 172d0774874 data: 0 lru: 15 dirty:
[LLC] lru_victim instr_id: 7727619 replace set: 117 way: 1 address: 18593fd1875 victim address: 172d0771075 data: 0 lru: 15 dirty:
[LLC] lru_victim instr_id: 7728082 replace set: 122 way: 0 address: 18593fd187a victim address: 172d077407a data: 0 lru: 15 dirty:
[LLC] lru_victim instr_id: 7728159 replace set: 123 way: 1 address: 18593fd187b victim address: 172d077407b data: 0 lru: 15 dirty:
[LLC] lru_victim instr_id: 7728385 replace set: 125 way: 1 address: 18593fd187d victim address: 172d077487d data: 0 lru: 15 dirty:
[LLC] lru_victim instr_id: 7728659 replace set: 127 way: 1 address: 18593fd187f victim address: 172d077507f data: 0 lru: 15 dirty:
[LLC] lru_victim instr_id: 7728902 replace set: 129 way: 1 address: 18593fd1881 victim address: 172d0774881 data: 0 lru: 15 dirty:
[LLC] lru_victim instr_id: 7730330 replace set: 144 way: 2 address: 18593fd1890 victim address: 172d0774890 data: 0 lru: 15 dirty:
[LLC] lru_victim instr_id: 7730390 replace set: 145 way: 4 address: 18593fd1891 victim address: 1fc0cba4891 data: 0 lru: 15 dirty:
[LLC] lru_victim instr_id: 7732775 replace set: 170 way: 0 address: 18593fd18aa victim address: 172d07728aa data: 0 lru: 15 dirty:
[LLC] lru_victim instr_id: 7733568 replace set: 196 way: 3 address: 18593fd18c4 victim address: 172d07758c4 data: 0 lru: 15 dirty:
[LLC] lru_victim instr_id: 7737428 replace set: 201 way: 3 address: 18593fd18c9 victim address: 172d07720c9 data: 0 lru: 15 dirty:
[LLC] lru_victim instr_id: 7745713 replace set: 120 way: 0 address: 1fc0cba8878 victim address: 172d0774878 data: 0 lru: 15 dirty:
[LLC] lru_victim instr_id: 7747518 replace set: 244 way: 0 address: c10ab868f4 victim address: 172d07748f4 data: 0 lru: 15 dirty:
[LLC] lru_victim instr_id: 7748271 replace set: 218 way: 1 address: 18593fd18da victim address: 172d07738da data: 0 lru: 15 dirty:
[LLC] lru_victim instr_id: 7748271 replace set: 218 way: 2 address: 172d07710da victim address: 172d07728da data: 0 lru: 15 dirty:
[LLC] lru_victim instr_id: 7751829 replace set: 837 way: 0 address: 172d0776345 victim address: 172d0771345 data: 0 lru: 15 dirty:
[LLC] lru_victim instr_id: 7754353 replace set: 837 way: 1 address: 18593fd1b45 victim address: 172d0772b45 data: 0 lru: 15 dirty:
[LLC] lru_victim instr_id: 7754430 replace set: 838 way: 0 address: 18593fd1b46 victim address: 172d0772b46 data: 0 lru: 15 dirty:
[LLC] lru_victim instr_id: 7754870 replace set: 841 way: 0 address: 18593fd1b49 victim address: 172d0772b49 data: 0 lru: 15 dirty:
[LLC] lru_victim instr_id: 7755119 replace set: 846 way: 0 address: 18593fd1b4e victim address: 172d0772b4e data: 0 lru: 15 dirty:
[LLC] lru_victim instr_id: 7755156 replace set: 845 way: 0 address: 18593fd1b4d victim address: 172d0772b4d data: 0 lru: 15 dirty:
[LLC] lru_victim instr_id: 7756159 replace set: 927 way: 0 address: 18593fd1b9f victim address: 172d077139f data: 0 lru: 15 dirty:
[LLC] lru_victim instr_id: 7756304 replace set: 855 way: 4 address: 18593fd1b57 victim address: 172d0775b57 data: 0 lru: 15 dirty:
[LLC] lru_victim instr_id: 7756348 replace set: 929 way: 0 address: 18593fd1ba1 victim address: 172d07713a1 data: 0 lru: 15 dirty:
[LLC] lru_victim instr_id: 7756718 replace set: 931 way: 0 address: 18593fd1ba3 victim address: 172d07753a3 data: 0 lru: 15 dirty:
[LLC] lru_victim instr_id: 7757064 replace set: 936 way: 1 address: 18593fd1ba8 victim address: 172d07753a8 data: 0 lru: 15 dirty:
[LLC] lru_victim instr_id: 7757124 replace set: 938 way: 1 address: 18593fd1baa victim address: 172d07753aa data: 0 lru: 15 dirty:
[LLC] lru_victim instr_id: 7758959 replace set: 959 way: 1 address: 18593fd1bbf victim address: 172d0775bbf data: 0 lru: 15 dirty:
[LLC] lru_victim instr_id: 7761617 replace set: 980 way: 0 address: 18593fd1bd4 victim address: 172d07743d4 data: 0 lru: 15 dirty:
[LLC] lru_victim instr_id: 7764747 replace set: 122 way: 1 address: 1fc0cba887a victim address: 172d077487a data: 0 lru: 15 dirty:
[LLC] lru_victim instr_id: 7765940 replace set: 1101 way: 0 address: 18593fd1c4d victim address: 172d0774c4d data: 0 lru: 15 dirty:
[LLC] lru_victim instr_id: 7769268 replace set: 341 way: 3 address: 18593fd1955 victim address: 172d0771955 data: 0 lru: 15 dirty:
[LLC] lru_victim instr_id: 7770509 replace set: 1154 way: 8 address: 18593fd1c82 victim address: c10ab86c82 data: 0 lru: 15 dirty:
[LLC] lru_victim instr_id: 7770563 replace set: 1153 way: 0 address: 18593fd1c81 victim address: 172d0772c81 data: 0 lru: 15 dirty:
[LLC] lru_victim instr_id: 7770586 replace set: 1155 way: 9 address: 18593fd1c83 victim address: c10ab87483 data: 0 lru: 15 dirty:
[LLC] lru_victim instr_id: 7770783 replace set: 1156 way: 1 address: 18593fd1c84 victim address: 30f903e6484 data: 0 lru: 15 dirty:
[LLC] lru_victim instr_id: 7770885 replace set: 123 way: 2 address: 1fc0cba887b victim address: 172d077487b data: 0 lru: 15 dirty:
[LLC] lru_victim instr_id: 7770972 replace set: 1159 way: 0 address: 18593fd1c87 victim address: 172d0773c87 data: 0 lru: 15 dirty:
[LLC] lru_victim instr_id: 7772128 replace set: 1173 way: 1 address: 18593fd1c95 victim address: 172d0772c95 data: 0 lru: 15 dirty:
[LLC] lru_victim instr_id: 7772454 replace set: 1175 way: 0 address: 18593fd1c97 victim address: 172d0772c97 data: 0 lru: 15 dirty:
[LLC] lru_victim instr_id: 7772591 replace set: 1178 way: 3 address: 18593fd1c9a victim address: 172d0775c9a data: 0 lru: 15 dirty:
[LLC] lru_victim instr_id: 7772871 replace set: 1179 way: 1 address: 18593fd1c9b victim address: 172d0773c9b data: 0 lru: 15 dirty:
[LLC] lru_victim instr_id: 7773108 replace set: 343 way: 0 address: 18593fd1957 victim address: 172d0774957 data: 0 lru: 15 dirty:
[LLC] lru_victim instr_id: 7775409 replace set: 1209 way: 2 address: 18593fd1cb9 victim address: 172d07724b9 data: 0 lru: 15 dirty:
[LLC] lru_victim instr_id: 7775538 replace set: 1210 way: 1 address: 18593fd1cba victim address: 1fc0cba3cba data: 0 lru: 15 dirty:
[LLC] lru_victim instr_id: 7776193 replace set: 1282 way: 0 address: 18593fd1d02 victim address: 172d0772d02 data: 0 lru: 15 dirty:
[LLC] lru_victim instr_id: 7776330 replace set: 1283 way: 1 address: 18593fd1d03 victim address: 172d0774d03 data: 0 lru: 15 dirty:
[LLC] lru_victim instr_id: 7776731 replace set: 1287 way: 1 address: 18593fd1d07 victim address: 172d0773507 data: 0 lru: 15 dirty:
[LLC] lru_victim instr_id: 7776968 replace set: 345 way: 1 address: 18593fd1959 victim address: 172d0774959 data: 0 lru: 15 dirty:
[LLC] lru_victim instr_id: 7777053 replace set: 124 way: 0 address: 1fc0cba887c victim address: 172d077287c data: 0 lru: 15 dirty:
[LLC] lru_victim instr_id: 7777520 replace set: 1298 way: 2 address: 18593fd1d12 victim address: 172d0774512 data: 0 lru: 15 dirty:
[LLC] lru_victim instr_id: 7777906 replace set: 1302 way: 4 address: 18593fd1d16 victim address: 172d0772516 data: 0 lru: 15 dirty:
[LLC] lru_victim instr_id: 7778986 replace set: 1315 way: 3 address: 18593fd1d23 victim address: 172d0774523 data: 0 lru: 15 dirty:
[LLC] lru_victim instr_id: 7781756 replace set: 1388 way: 0 address: 18593fd1d6c victim address: 172d0774d6c data: 0 lru: 15 dirty:
[LLC] lru_victim instr_id: 7783127 replace set: 1403 way: 9 address: 18593fd1d7b victim address: c10ab8557b data: 0 lru: 15 dirty:
[LLC] lru_victim instr_id: 7783221 replace set: 125 way: 2 address: 1fc0cba887d victim address: 172d077507d data: 0 lru: 15 dirty:
[LLC] lru_victim instr_id: 7783264 replace set: 1404 way: 1 address: 18593fd1d7c victim address: 1fc0cba657c data: 0 lru: 15 dirty:
[LLC] lru_victim instr_id: 7783385 replace set: 1407 way: 2 address: 18593fd1d7f victim address: 172d077657f data: 0 lru: 15 dirty:
[LLC] lru_victim instr_id: 7787581 replace set: 1436 way: 0 address: 18593fd1d9c victim address: 172d077559c data: 0 lru: 15 dirty:
[LLC] lru_victim instr_id: 7788219 replace set: 1458 way: 0 address: 18593fd1db2 victim address: 172d0774db2 data: 0 lru: 15 dirty:
[LLC] lru_victim instr_id: 7789989 replace set: 1586 way: 0 address: 18593fd1e32 victim address: 172d0774632 data: 0 lru: 15 dirty:
[LLC] lru_victim instr_id: 7792236 replace set: 1588 way: 4 address: 18593fd1e34 victim address: 1fc0cba9634 data: 0 lru: 15 dirty:
[LLC] lru_victim instr_id: 7792248 replace set: 1590 way: 1 address: 18593fd1e36 victim address: 172d0775636 data: 0 lru: 15 dirty:
[LLC] lru_victim instr_id: 7792347 replace set: 1763 way: 8 address: 18593fd1ee3 victim address: c10ab856e3 data: 0 lru: 15 dirty:
[LLC] lru_victim instr_id: 7792562 replace set: 1594 way: 2 address: 18593fd1e3a victim address: 172d077563a data: 0 lru: 15 dirty:
[LLC] lru_victim instr_id: 7792642 replace set: 1595 way: 0 address: 18593fd1e3b victim address: 172d077463b data: 0 lru: 15 dirty:
[LLC] lru_victim instr_id: 7792653 replace set: 1762 way: 0 address: 18593fd1ee2 victim address: 172d07746e2 data: 0 lru: 15 dirty:
[LLC] lru_victim instr_id: 7792900 replace set: 1679 way: 2 address: 18593fd1e8f victim address: 1fc0cba768f data: 0 lru: 15 dirty:
[LLC] lru_victim instr_id: 7793073 replace set: 1696 way: 0 address: 18593fd1ea0 victim address: 172d07736a0 data: 0 lru: 15 dirty:
[LLC] lru_victim instr_id: 7793376 replace set: 1699 way: 3 address: 18593fd1ea3 victim address: 1fc0cba2ea3 data: 0 lru: 15 dirty:
[LLC] lru_victim instr_id: 7793401 replace set: 1758 way: 3 address: 18593fd1ede victim address: 1fc0cba76de data: 0 lru: 15 dirty:
[LLC] lru_victim instr_id: 7793573 replace set: 1707 way: 2 address: 18593fd1eab victim address: 1fc0cba5eab data: 0 lru: 15 dirty:
[LLC] lru_victim instr_id: 7793815 replace set: 1756 way: 0 address: 18593fd1edc victim address: 172d07726dc data: 0 lru: 15 dirty:
[LLC] lru_victim instr_id: 7794545 replace set: 1753 way: 0 address: 18593fd1ed9 victim address: 172d07746d9 data: 0 lru: 15 dirty:
[LLC] lru_victim instr_id: 7794550 replace set: 1611 way: 5 address: 18593fd1e4b victim address: 172d0776e4b data: 0 lru: 15 dirty:
[LLC] lru_victim instr_id: 7795275 replace set: 1750 way: 2 address: 18593fd1ed6 victim address: 172d07756d6 data: 0 lru: 15 dirty:
[LLC] lru_victim instr_id: 7795335 replace set: 1612 way: 1 address: 18593fd1e4c victim address: 172d0775e4c data: 0 lru: 15 dirty:
[LLC] lru_victim instr_id: 7795581 replace set: 1749 way: 3 address: 18593fd1ed5 victim address: 1fc0cba56d5 data: 0 lru: 15 dirty:
[LLC] lru_victim instr_id: 7796023 replace set: 1746 way: 6 address: 18593fd1ed2 victim address: 172d07766d2 data: 0 lru: 15 dirty:
[LLC] lru_victim instr_id: 7796028 replace set: 1616 way: 0 address: 18593fd1e50 victim address: 172d0771650 data: 0 lru: 15 dirty:
[LLC] lru_victim instr_id: 7796329 replace set: 1745 way: 4 address: 18593fd1ed1 victim address: 1fc0cba56d1 data: 0 lru: 15 dirty:
[LLC] lru_victim instr_id: 7796730 replace set: 1744 way: 3 address: 18593fd1ed0 victim address: 172d07756d0 data: 0 lru: 15 dirty:
[LLC] lru_victim instr_id: 7797422 replace set: 1743 way: 3 address: 18593fd1ecf victim address: 172d07786cf data: 0 lru: 15 dirty:
[LLC] lru_victim instr_id: 7797728 replace set: 1742 way: 2 address: 18593fd1ece victim address: 172d07766ce data: 0 lru: 15 dirty:
[LLC] lru_victim instr_id: 7798333 replace set: 1992 way: 0 address: 18593fd1fc8 victim address: 172d0770fc8 data: 0 lru: 15 dirty:
[LLC] lru_victim instr_id: 7799561 replace set: 1737 way: 1 address: 18593fd1ec9 victim address: 172d07746c9 data: 0 lru: 15 dirty:
[LLC] lru_victim instr_id: 7799621 replace set: 1621 way: 0 address: 18593fd1e55 victim address: 172d0771655 data: 0 lru: 15 dirty:
[LLC] lru_victim instr_id: 7800059 replace set: 7 way: 0 address: 18593fd2007 victim address: 172d0771807 data: 0 lru: 15 dirty:
[LLC] lru_victim instr_id: 7800143 replace set: 91 way: 0 address: 18593fd205b victim address: 172d077385b data: 0 lru: 15 dirty:
[LLC] lru_victim instr_id: 7800329 replace set: 1730 way: 2 address: 18593fd1ec2 victim address: 172d07756c2 data: 0 lru: 15 dirty:
[LLC] lru_victim instr_id: 7800635 replace set: 1729 way: 1 address: 18593fd1ec1 victim address: 172d07756c1 data: 0 lru: 15 dirty:
[LLC] lru_victim instr_id: 7800995 replace set: 1728 way: 1 address: 18593fd1ec0 victim address: 172d0774ec0 data: 0 lru: 15 dirty:
[LLC] lru_victim instr_id: 7802819 replace set: 147 way: 1 address: 18593fd2093 victim address: 172d0773893 data: 0 lru: 15 dirty:
[LLC] lru_victim instr_id: 0 replace set: 923 way: 2 address: 172d077139b victim address: 172d077339b data: 0 lru: 15 dirty:
[LLC] lru_victim instr_id: 0 replace set: 927 way: 1 address: 172d077139f victim address: 172d077339f data: 0 lru: 15 dirty:
[LLC] lru_victim instr_id: 0 replace set: 936 way: 2 address: 172d07713a8 victim address: 172d07773a8 data: 0 lru: 15 dirty:
[LLC] lru_victim instr_id: 0 replace set: 1768 way: 2 address: 172d07716e8 victim address: 172d0774ee8 data: 0 lru: 15 dirty:
[LLC] lru_victim instr_id: 0 replace set: 1769 way: 1 address: 172d07716e9 victim address: 172d07746e9 data: 0 lru: 15 dirty:
[LLC] lru_victim instr_id: 0 replace set: 1770 way: 3 address: 172d07716ea victim address: 172d07756ea data: 0 lru: 15 dirty:
[LLC] lru_victim instr_id: 0 replace set: 1772 way: 2 address: 172d07716ec victim address: 172d07756ec data: 0 lru: 15 dirty:
[LLC] lru_victim instr_id: 0 replace set: 837 way: 2 address: 172d0771345 victim address: 172d0773345 data: 0 lru: 15 dirty:
[LLC] lru_victim instr_id: 7816637 replace set: 838 way: 1 address: 18593fcd346 victim address: 172d0771346 data: 0 lru: 15 dirty:
[LLC] lru_victim instr_id: 7817439 replace set: 1619 way: 0 address: 18593fcd653 victim address: 172d0773e53 data: 0 lru: 15 dirty:
[LLC] lru_victim instr_id: 7817971 replace set: 846 way: 1 address: 18593fcd34e victim address: 172d0773b4e data: 0 lru: 15 dirty:
[LLC] lru_victim instr_id: 7817998 replace set: 841 way: 1 address: 18593fcd349 victim address: 172d0774b49 data: 0 lru: 15 dirty:
[LLC] lru_victim instr_id: 7818342 replace set: 856 way: 2 address: 18593fcd358 victim address: 172d0775b58 data: 0 lru: 15 dirty:
[LLC] lru_victim instr_id: 7819420 replace set: 880 way: 0 address: 18593fcd370 victim address: 172d0771370 data: 0 lru: 15 dirty:
[LLC] lru_victim instr_id: 7819604 replace set: 646 way: 0 address: 18593fd2286 victim address: 172d0774286 data: 0 lru: 15 dirty:
[LLC] lru_victim instr_id: 7819620 replace set: 1758 way: 4 address: 1fc0cba4ede victim address: 172d0776ede data: 0 lru: 15 dirty:
[LLC] lru_victim instr_id: 7819867 replace set: 862 way: 1 address: 18593fd235e victim address: 172d0774b5e data: 0 lru: 15 dirty:
[LLC] lru_victim instr_id: 7820252 replace set: 865 way: 2 address: 18593fd2361 victim address: 172d0774b61 data: 0 lru: 15 dirty:
[LLC] lru_victim instr_id: 7821076 replace set: 881 way: 0 address: 18593fd2371 victim address: 172d0771371 data: 0 lru: 15 dirty:
[LLC] lru_victim instr_id: 7821130 replace set: 880 way: 1 address: 18593fd2370 victim address: 172d0772b70 data: 0 lru: 15 dirty:
[LLC] lru_victim instr_id: 7821992 replace set: 1298 way: 4 address: 18593fd2512 victim address: 1fc0cba4d12 data: 0 lru: 15 dirty:
[LLC] lru_victim instr_id: 0 replace set: 1178 way: 4 address: 172d0775c9a victim address: 172d077649a data: 0 lru: 15 dirty:
[LLC] lru_victim instr_id: 0 replace set: 1756 way: 1 address: 172d07726dc victim address: 1fc0cba76dc data: 0 lru: 15 dirty:
[LLC] lru_victim instr_id: 7824379 replace set: 1756 way: 2 address: 1fc0cba8edc victim address: c10ab886dc data: 0 lru: 15 dirty:
[LLC] lru_victim instr_id: 7825764 replace set: 1298 way: 5 address: c10ab8bd12 victim address: 1fc0cba3d12 data: 0 lru: 15 dirty:
[LLC] lru_victim instr_id: 0 replace set: 1178 way: 5 address: 172d077349a victim address: 1fc0cba3c9a data: 0 lru: 15 dirty:
[LLC] lru_victim instr_id: 7827885 replace set: 683 way: 1 address: 18593fd22ab victim address: 172d07752ab data: 0 lru: 15 dirty:
[LLC] lru_victim instr_id: 7827942 replace set: 688 way: 3 address: 18593fd22b0 victim address: 172d0772ab0 data: 0 lru: 15 dirty:
[LLC] lru_victim instr_id: 7828147 replace set: 1302 way: 5 address: 18593fd2516 victim address: 1fc0cba3d16 data: 0 lru: 15 dirty:
[LLC] lru_victim instr_id: 7828479 replace set: 1655 way: 0 address: 18593fd2677 victim address: 172d0773e77 data: 0 lru: 15 dirty:
[LLC] lru_victim instr_id: 7828650 replace set: 1653 way: 0 address: 18593fd2675 victim address: 172d0772675 data: 0 lru: 15 dirty:
[LLC] lru_victim instr_id: 7830046 replace set: 1651 way: 2 address: 18593fd2673 victim address: 172d0776673 data: 0 lru: 15 dirty:
[LLC] lru_victim instr_id: 7830156 replace set: 1637 way: 1 address: 18593fd2665 victim address: 172d0773e65 data: 0 lru: 15 dirty:
[LLC] lru_victim instr_id: 7830367 replace set: 1642 way: 0 address: 18593fd266a victim address: 172d077166a data: 0 lru: 15 dirty:
[LLC] lru_victim instr_id: 7830376 replace set: 1643 way: 1 address: 18593fd266b victim address: 172d0773e6b data: 0 lru: 15 dirty:
[LLC] lru_victim instr_id: 7830676 replace set: 1757 way: 1 address: 1fc0cba8edd victim address: 1fc0cba76dd data: 0 lru: 15 dirty:
[LLC] lru_victim instr_id: 0 replace set: 1742 way: 3 address: 172d07726ce victim address: 1fc0cba56ce data: 0 lru: 15 dirty:
[LLC] lru_victim instr_id: 0 replace set: 1743 way: 4 address: 172d07726cf victim address: 172d07766cf data: 0 lru: 15 dirty:
[LLC] lru_victim instr_id: 7832731 replace set: 1757 way: 2 address: 18593fcdedd victim address: c10ab856dd data: 0 lru: 15 dirty:
[LLC] lru_victim instr_id: 7835230 replace set: 1436 way: 1 address: 18593fcd59c victim address: 172d077659c data: 0 lru: 15 dirty:
[LLC] lru_victim instr_id: 7835274 replace set: 1434 way: 0 address: 18593fcd59a victim address: 172d0774d9a data: 0 lru: 15 dirty:
[LLC] lru_victim instr_id: 7837668 replace set: 1466 way: 0 address: 18593fcd5ba victim address: 172d07755ba data: 0 lru: 15 dirty:
[LLC] lru_victim instr_id: 7838051 replace set: 1446 way: 1 address: 18593fcd5a6 victim address: 172d07755a6 data: 0 lru: 15 dirty:
[LLC] lru_victim instr_id: 7838088 replace set: 1445 way: 0 address: 18593fcd5a5 victim address: 172d0774da5 data: 0 lru: 15 dirty:
[LLC] lru_victim instr_id: 7838128 replace set: 1447 way: 0 address: 18593fcd5a7 victim address: 172d0774da7 data: 0 lru: 15 dirty:
[LLC] lru_victim instr_id: 7838259 replace set: 1433 way: 0 address: 18593fcd599 victim address: 172d0774d99 data: 0 lru: 15 dirty:
[LLC] lru_victim instr_id: 7838412 replace set: 1454 way: 0 address: 18593fcd5ae victim address: 172d0771dae data: 0 lru: 15 dirty:
[LLC] lru_victim instr_id: 7838642 replace set: 1458 way: 1 address: 18593fcd5b2 victim address: 172d07755b2 data: 0 lru: 15 dirty:
[LLC] lru_victim instr_id: 7839197 replace set: 1762 way: 1 address: 18593fcdee2 victim address: 172d0774ee2 data: 0 lru: 15 dirty:
[LLC] lru_victim instr_id: 7840688 replace set: 1763 way: 2 address: 18593fcdee3 victim address: 172d07716e3 data: 0 lru: 15 dirty:
[LLC] lru_victim instr_id: 7841459 replace set: 1465 way: 0 address: 18593fcd5b9 victim address: 172d07755b9 data: 0 lru: 15 dirty:
[LLC] lru_victim instr_id: 7844177 replace set: 99 way: 0 address: 18593fd2063 victim address: 172d0771063 data: 0 lru: 15 dirty:
[LLC] lru_victim instr_id: 7844479 replace set: 120 way: 1 address: 18593fd2078 victim address: 172d0771078 data: 0 lru: 15 dirty:
[LLC] lru_victim instr_id: 7845237 replace set: 244 way: 1 address: 18593fd28f4 victim address: 172d07750f4 data: 0 lru: 15 dirty:
[LLC] lru_victim instr_id: 7845512 replace set: 1639 way: 5 address: 18593fd1e67 victim address: 1fc0cba7667 data: 0 lru: 15 dirty:
[LLC] lru_victim instr_id: 7846935 replace set: 1641 way: 1 address: 18593fd1e69 victim address: 172d0774e69 data: 0 lru: 15 dirty:
[LLC] lru_victim instr_id: 7847711 replace set: 1642 way: 2 address: 18593fd1e6a victim address: 1fc0cba566a data: 0 lru: 15 dirty:
[LLC] lru_victim instr_id: 7847910 replace set: 336 way: 0 address: 18593fd2950 victim address: 172d0774950 data: 0 lru: 15 dirty:
[LLC] lru_victim instr_id: 7848001 replace set: 338 way: 0 address: 18593fd2952 victim address: 172d0771152 data: 0 lru: 15 dirty:
[LLC] lru_victim instr_id: 7848192 replace set: 339 way: 0 address: 18593fd2953 victim address: 172d0771153 data: 0 lru: 15 dirty:
[LLC] lru_victim instr_id: 7848329 replace set: 340 way: 0 address: 18593fd2954 victim address: 172d0771154 data: 0 lru: 15 dirty:
[LLC] lru_victim instr_id: 7848410 replace set: 341 way: 4 address: 18593fd2955 victim address: 1fc0cba4955 data: 0 lru: 15 dirty:
[LLC] lru_victim instr_id: 7848450 replace set: 343 way: 1 address: 18593fd2957 victim address: 172d0775957 data: 0 lru: 15 dirty:
[LLC] lru_victim instr_id: 7848477 replace set: 1643 way: 3 address: 18593fd1e6b victim address: 1fc0cba566b data: 0 lru: 15 dirty:
[LLC] lru_victim instr_id: 7848676 replace set: 345 way: 2 address: 18593fd2959 victim address: 1fc0cba4959 data: 0 lru: 15 dirty:
[LLC] lru_victim instr_id: 7849828 replace set: 126 way: 0 address: 1fc0cba887e victim address: 172d077287e data: 0 lru: 15 dirty:
[LLC] lru_victim instr_id: 7851416 replace set: 420 way: 2 address: 18593fd29a4 victim address: 172d07741a4 data: 0 lru: 15 dirty:
[LLC] lru_victim instr_id: 7852128 replace set: 495 way: 0 address: 18593fd29ef victim address: 172d07789ef data: 0 lru: 15 dirty:
[LLC] lru_victim instr_id: 7852319 replace set: 1651 way: 7 address: 18593fd1e73 victim address: c10ab88673 data: 0 lru: 15 dirty:
[LLC] lru_victim instr_id: 7852374 replace set: 1650 way: 0 address: 18593fd1e72 victim address: 172d0772672 data: 0 lru: 15 dirty:
[LLC] lru_victim instr_id: 7853094 replace set: 1653 way: 1 address: 18593fd1e75 victim address: 172d0773e75 data: 0 lru: 15 dirty:
[LLC] lru_victim instr_id: 7853834 replace set: 1655 way: 1 address: 18593fd1e77 victim address: 172d0776677 data: 0 lru: 15 dirty:
[LLC] lru_victim instr_id: 7856674 replace set: 627 way: 0 address: 18593fd2a73 victim address: 172d0772a73 data: 0 lru: 15 dirty:
[LLC] lru_victim instr_id: 7860373 replace set: 127 way: 2 address: 1fc0cba887f victim address: 172d077287f data: 0 lru: 15 dirty:
[LLC] lru_victim instr_id: 7863621 replace set: 835 way: 0 address: 18593fd2b43 victim address: 172d0771343 data: 0 lru: 15 dirty:
[LLC] lru_victim instr_id: 7863847 replace set: 837 way: 3 address: 18593fd2b45 victim address: 172d0774b45 data: 0 lru: 15 dirty:
[LLC] lru_victim instr_id: 7863858 replace set: 838 way: 2 address: 18593fd2b46 victim address: 172d0773346 data: 0 lru: 15 dirty:
[LLC] lru_victim instr_id: 7864276 replace set: 841 way: 2 address: 18593fd2b49 victim address: 1fc0cba4b49 data: 0 lru: 15 dirty:
[LLC] lru_victim instr_id: 7864623 replace set: 846 way: 2 address: 18593fd2b4e victim address: 172d0774b4e data: 0 lru: 15 dirty:
[LLC] lru_victim instr_id: 7864677 replace set: 845 way: 1 address: 18593fd2b4d victim address: 172d0774b4d data: 0 lru: 15 dirty:
[LLC] lru_victim instr_id: 7865026 replace set: 849 way: 0 address: 18593fd2b51 victim address: 172d0772b51 data: 0 lru: 15 dirty:
[LLC] lru_victim instr_id: 7865190 replace set: 913 way: 1 address: 18593fd2b91 victim address: 172d0775391 data: 0 lru: 15 dirty:
[LLC] lru_victim instr_id: 7865389 replace set: 855 way: 5 address: 18593fd2b57 victim address: 172d0777b57 data: 0 lru: 15 dirty:
[LLC] lru_victim instr_id: 7865443 replace set: 854 way: 0 address: 18593fd2b56 victim address: 172d0772b56 data: 0 lru: 15 dirty:
[LLC] lru_victim instr_id: 7865466 replace set: 856 way: 4 address: 18593fd2b58 victim address: 1fc0cba4b58 data: 0 lru: 15 dirty:
[LLC] lru_victim instr_id: 7865812 replace set: 858 way: 3 address: 18593fd2b5a victim address: 172d0775b5a data: 0 lru: 15 dirty:
[LLC] lru_victim instr_id: 7865872 replace set: 860 way: 2 address: 18593fd2b5c victim address: 172d0775b5c data: 0 lru: 15 dirty:
[LLC] lru_victim instr_id: 7865926 replace set: 859 way: 1 address: 18593fd2b5b victim address: 172d0774b5b data: 0 lru: 15 dirty:
[LLC] lru_victim instr_id: 7865949 replace set: 861 way: 0 address: 18593fd2b5d victim address: 172d0772b5d data: 0 lru: 15 dirty:
[LLC] lru_victim instr_id: 7865976 replace set: 914 way: 9 address: 18593fd2b92 victim address: c10ab85b92 data: 0 lru: 15 dirty:
[LLC] lru_victim instr_id: 7866175 replace set: 864 way: 0 address: 18593fd2b60 victim address: 172d0772b60 data: 0 lru: 15 dirty:
[LLC] lru_victim instr_id: 7866212 replace set: 863 way: 0 address: 18593fd2b5f victim address: 172d077235f data: 0 lru: 15 dirty:
[LLC] lru_victim instr_id: 7866242 replace set: 862 way: 2 address: 18593fd2b5e victim address: 172d0775b5e data: 0 lru: 15 dirty:
[LLC] lru_victim instr_id: 7866252 replace set: 865 way: 3 address: 18593fd2b61 victim address: 172d0775b61 data: 0 lru: 15 dirty:
[LLC] lru_victim instr_id: 7867481 replace set: 879 way: 0 address: 18593fd2b6f victim address: 172d0772b6f data: 0 lru: 15 dirty:
[LLC] lru_victim instr_id: 7867508 replace set: 916 way: 3 address: 18593fd2b94 victim address: 172d0775394 data: 0 lru: 15 dirty:
[LLC] lru_victim instr_id: 7867707 replace set: 881 way: 1 address: 18593fd2b71 victim address: 172d0772b71 data: 0 lru: 15 dirty:
[LLC] lru_victim instr_id: 7867761 replace set: 880 way: 2 address: 18593fd2b70 victim address: 172d0774b70 data: 0 lru: 15 dirty:
[LLC] lru_victim instr_id: 7868527 replace set: 889 way: 0 address: 18593fd2b79 victim address: 172d0771379 data: 0 lru: 15 dirty:
[LLC] lru_victim instr_id: 7870107 replace set: 525 way: 1 address: 18593fd2a0d victim address: 172d0773a0d data: 0 lru: 15 dirty:
[LLC] lru_victim instr_id: 7870781 replace set: 980 way: 1 address: 18593fd2bd4 victim address: 172d07753d4 data: 0 lru: 15 dirty:
[LLC] lru_victim instr_id: 7871141 replace set: 523 way: 1 address: 18593fd2a0b victim address: 172d0773a0b data: 0 lru: 15 dirty:
[LLC] lru_victim instr_id: 7872890 replace set: 923 way: 3 address: 18593fd2b9b victim address: 172d077539b data: 0 lru: 15 dirty:
[LLC] lru_victim instr_id: 7874129 replace set: 1082 way: 0 address: 18593fd2c3a victim address: 172d077443a data: 0 lru: 15 dirty:
[LLC] lru_victim instr_id: 7874422 replace set: 925 way: 1 address: 18593fd2b9d victim address: 172d0772b9d data: 0 lru: 15 dirty:
[LLC] lru_victim instr_id: 7875826 replace set: 1101 way: 1 address: 18593fd2c4d victim address: 172d077344d data: 0 lru: 15 dirty:
[LLC] lru_victim instr_id: 7875974 replace set: 927 way: 2 address: 18593fd2b9f victim address: 172d0772b9f data: 0 lru: 15 dirty:
[LLC] lru_victim instr_id: 7877516 replace set: 929 way: 1 address: 18593fd2ba1 victim address: 172d07733a1 data: 0 lru: 15 dirty:
[LLC] lru_victim instr_id: 7879048 replace set: 931 way: 1 address: 18593fd2ba3 victim address: 1fc0cba53a3 data: 0 lru: 15 dirty:
[LLC] lru_victim instr_id: 7879814 replace set: 932 way: 1 address: 18593fd2ba4 victim address: 172d07753a4 data: 0 lru: 15 dirty:
[LLC] lru_victim instr_id: 7880426 replace set: 1153 way: 1 address: 18593fd2c81 victim address: 172d0773c81 data: 0 lru: 15 dirty:
[LLC] lru_victim instr_id: 7880486 replace set: 1155 way: 7 address: 18593fd2c83 victim address: 1fc0cbaac83 data: 0 lru: 15 dirty:
[LLC] lru_victim instr_id: 7880540 replace set: 1154 way: 9 address: 18593fd2c82 victim address: c10ab87482 data: 0 lru: 15 dirty:
[LLC] lru_victim instr_id: 7880563 replace set: 1156 way: 2 address: 18593fd2c84 victim address: 172d0771c84 data: 0 lru: 15 dirty:
[LLC] lru_victim instr_id: 7880789 replace set: 1159 way: 1 address: 18593fd2c87 victim address: 172d0772c87 data: 0 lru: 15 dirty:
[LLC] lru_victim instr_id: 7881192 replace set: 1162 way: 0 address: 18593fd2c8a victim address: 172d0772c8a data: 0 lru: 15 dirty:
[LLC] lru_victim instr_id: 7881566 replace set: 1168 way: 0 address: 18593fd2c90 victim address: 172d0776490 data: 0 lru: 15 dirty:
[LLC] lru_victim instr_id: 7881646 replace set: 1169 way: 0 address: 18593fd2c91 victim address: 172d0772c91 data: 0 lru: 15 dirty:
[LLC] lru_victim instr_id: 7882028 replace set: 1173 way: 3 address: 18593fd2c95 victim address: 172d0776495 data: 0 lru: 15 dirty:
[LLC] lru_victim instr_id: 7882065 replace set: 1172 way: 1 address: 18593fd2c94 victim address: 172d0776494 data: 0 lru: 15 dirty:
[LLC] lru_victim instr_id: 7882385 replace set: 1175 way: 1 address: 18593fd2c97 victim address: 172d0776497 data: 0 lru: 15 dirty:
[LLC] lru_victim instr_id: 7882408 replace set: 1177 way: 0 address: 18593fd2c99 victim address: 172d0772c99 data: 0 lru: 15 dirty:
[LLC] lru_victim instr_id: 7882605 replace set: 1178 way: 8 address: 18593fd2c9a victim address: c10ab84c9a data: 0 lru: 15 dirty:
[LLC] lru_victim instr_id: 7882734 replace set: 1179 way: 2 address: 18593fd2c9b victim address: 172d0772c9b data: 0 lru: 15 dirty:
[LLC] lru_victim instr_id: 7882898 replace set: 936 way: 3 address: 18593fd2ba8 victim address: 1fc0cba73a8 data: 0 lru: 15 dirty:
[LLC] lru_victim instr_id: 7883097 replace set: 1185 way: 0 address: 18593fd2ca1 victim address: 172d07714a1 data: 0 lru: 15 dirty:
[LLC] lru_victim instr_id: 7883371 replace set: 1187 way: 0 address: 18593fd2ca3 victim address: 172d07714a3 data: 0 lru: 15 dirty:
[LLC] lru_victim instr_id: 7884450 replace set: 938 way: 2 address: 18593fd2baa victim address: 172d0771baa data: 0 lru: 15 dirty:
[LLC] lru_victim instr_id: 7885189 replace set: 1209 way: 3 address: 18593fd2cb9 victim address: 1fc0cba3cb9 data: 0 lru: 15 dirty:
[LLC] lru_victim instr_id: 7885216 replace set: 939 way: 0 address: 18593fd2bab victim address: 172d07713ab data: 0 lru: 15 dirty:
[LLC] lru_victim instr_id: 7885469 replace set: 1210 way: 2 address: 18593fd2cba victim address: 1fc0cba4cba data: 0 lru: 15 dirty:
[LLC] lru_victim instr_id: 7885979 replace set: 642 way: 1 address: 18593fd2a82 victim address: 172d0775282 data: 0 lru: 15 dirty:
[LLC] lru_victim instr_id: 7885992 replace set: 940 way: 0 address: 18593fd2bac victim address: 172d07753ac data: 0 lru: 15 dirty:
[LLC] lru_victim instr_id: 7886191 replace set: 644 way: 3 address: 18593fd2a84 victim address: 172d0775284 data: 0 lru: 15 dirty:
[LLC] lru_victim instr_id: 7886293 replace set: 1280 way: 0 address: 18593fd2d00 victim address: 172d0774500 data: 0 lru: 15 dirty:
[LLC] lru_victim instr_id: 7886465 replace set: 646 way: 1 address: 18593fd2a86 victim address: 172d0775286 data: 0 lru: 15 dirty:
[LLC] lru_victim instr_id: 7886626 replace set: 1407 way: 3 address: 18593fd2d7f victim address: 172d077357f data: 0 lru: 15 dirty:
[LLC] lru_victim instr_id: 7886670 replace set: 650 way: 2 address: 18593fd2a8a victim address: 172d077528a data: 0 lru: 15 dirty:
[LLC] lru_victim instr_id: 7886891 replace set: 941 way: 0 address: 18593fd2bad victim address: 1fc0cba63ad data: 0 lru: 15 dirty:
[LLC] lru_victim instr_id: 7887606 replace set: 1404 way: 2 address: 18593fd2d7c victim address: 1fc0cba757c data: 0 lru: 15 dirty:
[LLC] lru_victim instr_id: 7887666 replace set: 942 way: 0 address: 18593fd2bae victim address: 1fc0cba63ae data: 0 lru: 15 dirty:
[LLC] lru_victim instr_id: 7887912 replace set: 1403 way: 6 address: 18593fd2d7b victim address: 1fc0cba757b data: 0 lru: 15 dirty:
[LLC] lru_victim instr_id: 7888150 replace set: 1457 way: 0 address: 18593fd2db1 victim address: 172d0774db1 data: 0 lru: 15 dirty:
[LLC] lru_victim instr_id: 7888540 replace set: 1434 way: 1 address: 18593fd2d9a victim address: 172d077559a data: 0 lru: 15 dirty:
[LLC] lru_victim instr_id: 7888594 replace set: 1433 way: 1 address: 18593fd2d99 victim address: 172d0775599 data: 0 lru: 15 dirty:
[LLC] lru_victim instr_id: 7888617 replace set: 1435 way: 0 address: 18593fd2d9b victim address: 172d0774d9b data: 0 lru: 15 dirty:
[LLC] lru_victim instr_id: 7888814 replace set: 1444 way: 0 address: 18593fd2da4 victim address: 172d0774da4 data: 0 lru: 15 dirty:
[LLC] lru_victim instr_id: 7888842 replace set: 1447 way: 1 address: 18593fd2da7 victim address: 172d07755a7 data: 0 lru: 15 dirty:
[LLC] lru_victim instr_id: 7888861 replace set: 1446 way: 2 address: 18593fd2da6 victim address: 172d07765a6 data: 0 lru: 15 dirty:
[LLC] lru_victim instr_id: 7888957 replace set: 1461 way: 0 address: 18593fd2db5 victim address: 172d07715b5 data: 0 lru: 15 dirty:
[LLC] lru_victim instr_id: 7889116 replace set: 946 way: 1 address: 18593fd2bb2 victim address: 1fc0cba5bb2 data: 0 lru: 15 dirty:
[LLC] lru_victim instr_id: 7889297 replace set: 1463 way: 1 address: 18593fd2db7 victim address: 172d07765b7 data: 0 lru: 15 dirty:
[LLC] lru_victim instr_id: 7889337 replace set: 1465 way: 1 address: 18593fd2db9 victim address: 172d0775db9 data: 0 lru: 15 dirty:
[LLC] lru_victim instr_id: 7890612 replace set: 952 way: 0 address: 18593fd2bb8 victim address: 172d07713b8 data: 0 lru: 15 dirty:
[LLC] lru_victim instr_id: 7891238 replace set: 1388 way: 1 address: 18593fd2d6c victim address: 172d077156c data: 0 lru: 15 dirty:
[LLC] lru_victim instr_id: 7891963 replace set: 956 way: 0 address: 18593fd2bbc victim address: 172d07713bc data: 0 lru: 15 dirty:
[LLC] lru_victim instr_id: 7892670 replace set: 957 way: 0 address: 18593fd2bbd victim address: 172d07713bd data: 0 lru: 15 dirty:
[LLC] lru_victim instr_id: 7893322 replace set: 484 way: 1 address: 18593fd11e4 victim address: 172d07751e4 data: 0 lru: 15 dirty:
[LLC] lru_victim instr_id: 7894147 replace set: 959 way: 2 address: 18593fd2bbf victim address: 172d07763bf data: 0 lru: 15 dirty:
[LLC] lru_victim instr_id: 7894631 replace set: 1696 way: 2 address: 18593fd2ea0 victim address: 172d0771ea0 data: 0 lru: 15 dirty:
[LLC] lru_victim instr_id: 7894822 replace set: 1602 way: 1 address: 18593fd2e42 victim address: 172d0775e42 data: 0 lru: 15 dirty:
[LLC] lru_victim instr_id: 7895295 replace set: 1586 way: 1 address: 18593fd2e32 victim address: 172d0773e32 data: 0 lru: 15 dirty:
[LLC] lru_victim instr_id: 7895342 replace set: 1596 way: 0 address: 18593fd2e3c victim address: 172d077463c data: 0 lru: 15 dirty:
[LLC] lru_victim instr_id: 7895435 replace set: 1727 way: 0 address: 18593fd2ebf victim address: 172d0772ebf data: 0 lru: 15 dirty:
[LLC] lru_victim instr_id: 7895478 replace set: 1699 way: 4 address: 18593fd2ea3 victim address: 1fc0cba5ea3 data: 0 lru: 15 dirty:
[LLC] lru_victim instr_id: 7895522 replace set: 1700 way: 0 address: 18593fd2ea4 victim address: 172d0775ea4 data: 0 lru: 15 dirty:
[LLC] lru_victim instr_id: 7896229 replace set: 1708 way: 4 address: 18593fd2eac victim address: c10ab85eac data: 0 lru: 15 dirty:
[LLC] lru_victim instr_id: 7896240 replace set: 1709 way: 0 address: 18593fd2ead victim address: 172d0771ead data: 0 lru: 15 dirty:
[LLC] lru_victim instr_id: 7896283 replace set: 1707 way: 3 address: 18593fd2eab victim address: 1fc0cba6eab data: 0 lru: 15 dirty:
[LLC] lru_victim instr_id: 7896532 replace set: 1712 way: 0 address: 18593fd2eb0 victim address: 172d07756b0 data: 0 lru: 15 dirty:
[LLC] lru_victim instr_id: 7896855 replace set: 1716 way: 1 address: 18593fd2eb4 victim address: 172d07776b4 data: 0 lru: 15 dirty:
[LLC] lru_victim instr_id: 7897556 replace set: 1762 way: 2 address: 18593fd2ee2 victim address: 1fc0cba2ee2 data: 0 lru: 15 dirty:
[LLC] lru_victim instr_id: 7897710 replace set: 1780 way: 0 address: 18593fd2ef4 victim address: 172d07746f4 data: 0 lru: 15 dirty:
[LLC] lru_victim instr_id: 7897803 replace set: 1612 way: 2 address: 18593fd2e4c victim address: 172d077364c data: 0 lru: 15 dirty:
[LLC] lru_victim instr_id: 7897858 replace set: 1611 way: 0 address: 18593fd2e4b victim address: 172d0775e4b data: 0 lru: 15 dirty:
[LLC] lru_victim instr_id: 7898857 replace set: 1619 way: 1 address: 18593fd2e53 victim address: 172d0771e53 data: 0 lru: 15 dirty:
[LLC] lru_victim instr_id: 7899840 replace set: 1992 way: 2 address: 18593fd2fc8 victim address: 172d0773fc8 data: 0 lru: 15 dirty:
[LLC] lru_victim instr_id: 7900294 replace set: 1628 way: 0 address: 18593fd2e5c victim address: 1fc0cba5e5c data: 0 lru: 15 dirty:
[LLC] lru_victim instr_id: 7902129 replace set: 7 way: 3 address: 18593fd3007 victim address: 172d0776807 data: 0 lru: 15 dirty:
[LLC] lru_victim instr_id: 7902440 replace set: 1633 way: 0 address: 18593fd2e61 victim address: 172d0773e61 data: 0 lru: 15 dirty:
[LLC] lru_victim instr_id: 7903783 replace set: 197 way: 0 address: 18593fd30c5 victim address: 172d07740c5 data: 0 lru: 15 dirty:
[LLC] lru_victim instr_id: 7903837 replace set: 196 way: 4 address: 18593fd30c4 victim address: 172d07788c4 data: 0 lru: 15 dirty:
[LLC] lru_victim instr_id: 7903890 replace set: 1637 way: 2 address: 18593fd2e65 victim address: 1fc0cba2e65 data: 0 lru: 15 dirty:
[LLC] lru_victim instr_id: 7904117 replace set: 201 way: 5 address: 18593fd30c9 victim address: 1fc0cba48c9 data: 0 lru: 15 dirty:
[LLC] lru_victim instr_id: 7904527 replace set: 1638 way: 0 address: 18593fd2e66 victim address: 172d0773e66 data: 0 lru: 15 dirty:
[LLC] lru_victim instr_id: 7904893 replace set: 210 way: 0 address: 18593fd30d2 victim address: 172d07738d2 data: 0 lru: 15 dirty:
[LLC] lru_victim instr_id: 7905303 replace set: 1639 way: 7 address: 18593fd2e67 victim address: c10ab88667 data: 0 lru: 15 dirty:
[LLC] lru_victim instr_id: 7905696 replace set: 218 way: 3 address: 18593fd30da victim address: 1fc0cba48da data: 0 lru: 15 dirty:
[LLC] lru_victim instr_id: 7906069 replace set: 1640 way: 0 address: 18593fd2e68 victim address: 172d0771668 data: 0 lru: 15 dirty:
[LLC] lru_victim instr_id: 7906782 replace set: 230 way: 0 address: 18593fd30e6 victim address: 172d07710e6 data: 0 lru: 15 dirty:
[LLC] lru_victim instr_id: 7906835 replace set: 1641 way: 3 address: 18593fd2e69 victim address: 1fc0cba5669 data: 0 lru: 15 dirty:
[LLC] lru_victim instr_id: 7907131 replace set: 234 way: 0 address: 18593fd30ea victim address: 172d07710ea data: 0 lru: 15 dirty:
[LLC] lru_victim instr_id: 7907601 replace set: 1642 way: 6 address: 18593fd2e6a victim address: c10ab8866a data: 0 lru: 15 dirty:
[LLC] lru_victim instr_id: 7908021 replace set: 244 way: 2 address: 18593fd30f4 victim address: 172d07768f4 data: 0 lru: 15 dirty:
[LLC] lru_victim instr_id: 7908377 replace set: 1643 way: 5 address: 18593fd2e6b victim address: f3b8ff3e6b data: 0 lru: 15 dirty:
[LLC] lru_victim instr_id: 7910342 replace set: 336 way: 1 address: 18593fd3150 victim address: 172d0775950 data: 0 lru: 15 dirty:
[LLC] lru_victim instr_id: 7910568 replace set: 339 way: 1 address: 18593fd3153 victim address: 172d0776153 data: 0 lru: 15 dirty:
[LLC] lru_victim instr_id: 7910605 replace set: 338 way: 1 address: 18593fd3152 victim address: 172d0774952 data: 0 lru: 15 dirty:
[LLC] lru_victim instr_id: 7910645 replace set: 340 way: 1 address: 18593fd3154 victim address: 172d0774954 data: 0 lru: 15 dirty:
[LLC] lru_victim instr_id: 7910842 replace set: 341 way: 6 address: 18593fd3155 victim address: 1fc0cba5955 data: 0 lru: 15 dirty:
[LLC] lru_victim instr_id: 7911085 replace set: 343 way: 2 address: 18593fd3157 victim address: 1fc0cba4957 data: 0 lru: 15 dirty:
[LLC] lru_victim instr_id: 7911108 replace set: 345 way: 3 address: 18593fd3159 victim address: 1fc0cbaa959 data: 0 lru: 15 dirty:
[LLC] lru_victim instr_id: 7913759 replace set: 1650 way: 1 address: 18593fd2e72 victim address: 172d0773e72 data: 0 lru: 15 dirty:
[LLC] lru_victim instr_id: 7914535 replace set: 1651 way: 8 address: 18593fd2e73 victim address: c10ab89e73 data: 0 lru: 15 dirty:
[LLC] lru_victim instr_id: 7916087 replace set: 1653 way: 2 address: 18593fd2e75 victim address: 172d0776675 data: 0 lru: 15 dirty:
[LLC] lru_victim instr_id: 7916443 replace set: 404 way: 1 address: 18593fd3194 victim address: 172d0774194 data: 0 lru: 15 dirty:
[LLC] lru_victim instr_id: 7917209 replace set: 413 way: 0 address: 18593fd319d victim address: 172d077599d data: 0 lru: 15 dirty:
[LLC] lru_victim instr_id: 7917619 replace set: 1655 way: 2 address: 18593fd2e77 victim address: 172d0772677 data: 0 lru: 15 dirty:
[LLC] lru_victim instr_id: 7919151 replace set: 1657 way: 0 address: 18593fd2e79 victim address: 172d0773e79 data: 0 lru: 15 dirty:
[LLC] lru_victim instr_id: 7921626 replace set: 484 way: 2 address: 18593fd31e4 victim address: 172d07741e4 data: 0 lru: 15 dirty:
[LLC] lru_victim instr_id: 7922225 replace set: 1661 way: 0 address: 18593fd2e7d victim address: 172d077267d data: 0 lru: 15 dirty:
[LLC] lru_victim instr_id: 7922645 replace set: 495 way: 1 address: 18593fd31ef victim address: 1fc0cba39ef data: 0 lru: 15 dirty:
[LLC] lru_victim instr_id: 7922931 replace set: 499 way: 0 address: 18593fd31f3 victim address: 172d07749f3 data: 0 lru: 15 dirty:
[LLC] lru_victim instr_id: 7922961 replace set: 498 way: 0 address: 18593fd31f2 victim address: 172d07721f2 data: 0 lru: 15 dirty:
[LLC] lru_victim instr_id: 7923001 replace set: 1662 way: 0 address: 18593fd2e7e victim address: 172d077267e data: 0 lru: 15 dirty:
[LLC] lru_victim instr_id: 7924710 replace set: 519 way: 0 address: 18593fd3207 victim address: 172d0773a07 data: 0 lru: 15 dirty:
[LLC] lru_victim instr_id: 7924899 replace set: 522 way: 3 address: 18593fd320a victim address: 172d0773a0a data: 0 lru: 15 dirty:
[LLC] lru_victim instr_id: 7924910 replace set: 523 way: 2 address: 18593fd320b victim address: 172d0774a0b data: 0 lru: 15 dirty:
[LLC] lru_victim instr_id: 7925256 replace set: 525 way: 2 address: 18593fd320d victim address: 172d0775a0d data: 0 lru: 15 dirty:
[LLC] lru_victim instr_id: 7925729 replace set: 530 way: 0 address: 18593fd3212 victim address: 172d0772a12 data: 0 lru: 15 dirty:
[LLC] lru_victim instr_id: 7926755 replace set: 544 way: 0 address: 18593fd3220 victim address: 172d0771220 data: 0 lru: 15 dirty:
[LLC] lru_victim instr_id: 7929592 replace set: 640 way: 0 address: 18593fd3280 victim address: 172d0771280 data: 0 lru: 15 dirty:
[LLC] lru_victim instr_id: 7929818 replace set: 642 way: 2 address: 18593fd3282 victim address: 172d0774282 data: 0 lru: 15 dirty:
[LLC] lru_victim instr_id: 7929872 replace set: 641 way: 0 address: 18593fd3281 victim address: 172d0775281 data: 0 lru: 15 dirty:
[LLC] lru_victim instr_id: 7929909 replace set: 644 way: 4 address: 18593fd3284 victim address: 172d0772a84 data: 0 lru: 15 dirty:
[LLC] lru_victim instr_id: 7930110 replace set: 645 way: 0 address: 18593fd3285 victim address: 172d0775285 data: 0 lru: 15 dirty:
[LLC] lru_victim instr_id: 7930247 replace set: 646 way: 3 address: 18593fd3286 victim address: 30f903e6a86 data: 0 lru: 15 dirty:
[LLC] lru_victim instr_id: 7930328 replace set: 647 way: 0 address: 18593fd3287 victim address: 172d0775287 data: 0 lru: 15 dirty:
[LLC] lru_victim instr_id: 7930648 replace set: 650 way: 3 address: 18593fd328a victim address: 172d0772a8a data: 0 lru: 15 dirty:
[LLC] lru_victim instr_id: 7931773 replace set: 663 way: 0 address: 18593fd3297 victim address: 172d0775a97 data: 0 lru: 15 dirty:
[LLC] lru_victim instr_id: 7931887 replace set: 664 way: 0 address: 18593fd3298 victim address: 172d0775298 data: 0 lru: 15 dirty:
[LLC] lru_victim instr_id: 7933365 replace set: 683 way: 2 address: 18593fd32ab victim address: 172d0772aab data: 0 lru: 15 dirty:
[LLC] lru_victim instr_id: 7933962 replace set: 688 way: 5 address: 18593fd32b0 victim address: 1fc0cba92b0 data: 0 lru: 15 dirty:
[LLC] lru_victim instr_id: 7934508 replace set: 694 way: 0 address: 18593fd32b6 victim address: 172d07712b6 data: 0 lru: 15 dirty:
[LLC] lru_victim instr_id: 7935297 replace set: 129 way: 3 address: 18593fd3081 victim address: 172d0776881 data: 0 lru: 15 dirty:
[LLC] lru_victim instr_id: 7935504 replace set: 130 way: 0 address: 18593fd3082 victim address: 172d0772882 data: 0 lru: 15 dirty:
[LLC] lru_victim instr_id: 7935770 replace set: 134 way: 0 address: 18593fd3086 victim address: 172d0771086 data: 0 lru: 15 dirty:
[LLC] lru_victim instr_id: 7935996 replace set: 136 way: 0 address: 18593fd3088 victim address: 172d0771088 data: 0 lru: 15 dirty:
[LLC] lru_victim instr_id: 7937202 replace set: 171 way: 1 address: 18593fd30ab victim address: 172d07730ab data: 0 lru: 15 dirty:
[LLC] lru_victim instr_id: 7937679 replace set: 170 way: 1 address: 18593fd30aa victim address: 172d07718aa data: 0 lru: 15 dirty:
[LLC] lru_victim instr_id: 7937704 replace set: 723 way: 2 address: 18593fd32d3 victim address: 172d07752d3 data: 0 lru: 15 dirty:
[LLC] lru_victim instr_id: 7938294 replace set: 832 way: 0 address: 18593fd3340 victim address: 172d0772b40 data: 0 lru: 15 dirty:
[LLC] lru_victim instr_id: 7938371 replace set: 833 way: 0 address: 18593fd3341 victim address: 172d0771341 data: 0 lru: 15 dirty:
[LLC] lru_victim instr_id: 7938588 replace set: 834 way: 0 address: 18593fd3342 victim address: 172d0771342 data: 0 lru: 15 dirty:
[LLC] lru_victim instr_id: 7938702 replace set: 835 way: 1 address: 18593fd3343 victim address: 172d0772b43 data: 0 lru: 15 dirty:
[LLC] lru_victim instr_id: 7938725 replace set: 837 way: 4 address: 18593fd3345 victim address: 1fc0cbaa345 data: 0 lru: 15 dirty:
[LLC] lru_victim instr_id: 7939005 replace set: 838 way: 3 address: 18593fd3346 victim address: 172d0774b46 data: 0 lru: 15 dirty:
[LLC] lru_victim instr_id: 7939042 replace set: 841 way: 4 address: 18593fd3349 victim address: 1fc0cba8349 data: 0 lru: 15 dirty:
[LLC] lru_victim instr_id: 7939414 replace set: 845 way: 2 address: 18593fd334d victim address: 172d0773b4d data: 0 lru: 15 dirty:
[LLC] lru_victim instr_id: 7939491 replace set: 846 way: 3 address: 18593fd334e victim address: 172d077134e data: 0 lru: 15 dirty:
[LLC] lru_victim instr_id: 7939794 replace set: 849 way: 1 address: 18593fd3351 victim address: 172d0774b51 data: 0 lru: 15 dirty:
[LLC] lru_victim instr_id: 7940191 replace set: 854 way: 1 address: 18593fd3356 victim address: 172d0771356 data: 0 lru: 15 dirty:
[LLC] lru_victim instr_id: 7940271 replace set: 855 way: 6 address: 18593fd3357 victim address: 1fc0cba4b57 data: 0 lru: 15 dirty:
[LLC] lru_victim instr_id: 7940537 replace set: 856 way: 6 address: 18593fd3358 victim address: 1fc0cba6b58 data: 0 lru: 15 dirty:
[LLC] lru_victim instr_id: 7940560 replace set: 858 way: 4 address: 18593fd335a victim address: 172d077735a data: 0 lru: 15 dirty:
[LLC] lru_victim instr_id: 7940757 replace set: 859 way: 2 address: 18593fd335b victim address: 172d0775b5b data: 0 lru: 15 dirty:
[LLC] lru_victim instr_id: 7940886 replace set: 860 way: 3 address: 18593fd335c victim address: 172d077735c data: 0 lru: 15 dirty:
[LLC] lru_victim instr_id: 7940946 replace set: 862 way: 3 address: 18593fd335e victim address: 172d077735e data: 0 lru: 15 dirty:
[LLC] lru_victim instr_id: 7941000 replace set: 861 way: 1 address: 18593fd335d victim address: 172d0774b5d data: 0 lru: 15 dirty:
[LLC] lru_victim instr_id: 7941023 replace set: 863 way: 1 address: 18593fd335f victim address: 172d0772b5f data: 0 lru: 15 dirty:
[LLC] lru_victim instr_id: 7941286 replace set: 865 way: 4 address: 18593fd3361 victim address: 1fc0cba4b61 data: 0 lru: 15 dirty:
[LLC] lru_victim instr_id: 7941316 replace set: 864 way: 1 address: 18593fd3360 victim address: 172d0774b60 data: 0 lru: 15 dirty:
[LLC] lru_victim instr_id: 7941326 replace set: 867 way: 0 address: 18593fd3363 victim address: 172d0772b63 data: 0 lru: 15 dirty:
[LLC] lru_victim instr_id: 7941652 replace set: 869 way: 0 address: 18593fd3365 victim address: 172d0772b65 data: 0 lru: 15 dirty:
[LLC] lru_victim instr_id: 7941712 replace set: 871 way: 0 address: 18593fd3367 victim address: 172d0774b67 data: 0 lru: 15 dirty:
[LLC] lru_victim instr_id: 7942297 replace set: 877 way: 0 address: 18593fd336d victim address: 172d0772b6d data: 0 lru: 15 dirty:
[LLC] lru_victim instr_id: 7942494 replace set: 880 way: 3 address: 18593fd3370 victim address: 172d0775b70 data: 0 lru: 15 dirty:
[LLC] lru_victim instr_id: 7942688 replace set: 896 way: 0 address: 18593fd3380 victim address: 172d0773b80 data: 0 lru: 15 dirty:
[LLC] lru_victim instr_id: 7942914 replace set: 898 way: 0 address: 18593fd3382 victim address: 172d0773b82 data: 0 lru: 15 dirty:
[LLC] lru_victim instr_id: 7943188 replace set: 900 way: 0 address: 18593fd3384 victim address: 172d0773b84 data: 0 lru: 15 dirty:
[LLC] lru_victim instr_id: 7943221 replace set: 909 way: 0 address: 18593fd338d victim address: 172d0773b8d data: 0 lru: 15 dirty:
[LLC] lru_victim instr_id: 7943329 replace set: 904 way: 0 address: 18593fd3388 victim address: 172d0773b88 data: 0 lru: 15 dirty:
[LLC] lru_victim instr_id: 7943940 replace set: 995 way: 1 address: 18593fd1be3 victim address: 172d07733e3 data: 0 lru: 15 dirty:
[LLC] lru_victim instr_id: 7943950 replace set: 925 way: 2 address: 18593fd339d victim address: 172d077339d data: 0 lru: 15 dirty:
[LLC] lru_victim instr_id: 7944064 replace set: 924 way: 1 address: 18593fd339c victim address: 172d077539c data: 0 lru: 15 dirty:
[LLC] lru_victim instr_id: 7944087 replace set: 927 way: 3 address: 18593fd339f victim address: 1fc0cba6b9f data: 0 lru: 15 dirty:
[LLC] lru_victim instr_id: 7944350 replace set: 929 way: 2 address: 18593fd33a1 victim address: 172d0772ba1 data: 0 lru: 15 dirty:
[LLC] lru_victim instr_id: 7944390 replace set: 931 way: 2 address: 18593fd33a3 victim address: 1fc0cba73a3 data: 0 lru: 15 dirty:
[LLC] lru_victim instr_id: 7944587 replace set: 939 way: 1 address: 18593fd33ab victim address: 172d07753ab data: 0 lru: 15 dirty:
[LLC] lru_victim instr_id: 7944607 replace set: 940 way: 1 address: 18593fd33ac victim address: 172d07713ac data: 0 lru: 15 dirty:
[LLC] lru_victim instr_id: 7944616 replace set: 932 way: 2 address: 18593fd33a4 victim address: 172d0772ba4 data: 0 lru: 15 dirty:
[LLC] lru_victim instr_id: 7944979 replace set: 937 way: 1 address: 18593fd33a9 victim address: 172d0771ba9 data: 0 lru: 15 dirty:
[LLC] lru_victim instr_id: 7944990 replace set: 938 way: 3 address: 18593fd33aa victim address: 172d07773aa data: 0 lru: 15 dirty:
[LLC] lru_victim instr_id: 7945033 replace set: 936 way: 4 address: 18593fd33a8 victim address: 1fc0cba6ba8 data: 0 lru: 15 dirty:
[LLC] lru_victim instr_id: 7945506 replace set: 997 way: 0 address: 18593fd1be5 victim address: 172d07713e5 data: 0 lru: 15 dirty:
[LLC] lru_victim instr_id: 7946327 replace set: 124 way: 1 address: 18593fce07c victim address: 172d077407c data: 0 lru: 15 dirty:
[LLC] lru_victim instr_id: 7946633 replace set: 123 way: 3 address: 18593fce07b victim address: 172d077507b data: 0 lru: 15 dirty:
[LLC] lru_victim instr_id: 7946861 replace set: 1088 way: 1 address: 18593fd3440 victim address: 1fc0cba3c40 data: 0 lru: 15 dirty:
[LLC] lru_victim instr_id: 7946945 replace set: 1155 way: 10 address: 18593fd3483 victim address: 1fc0cba6483 data: 0 lru: 15 dirty:
[LLC] lru_victim instr_id: 7946962 replace set: 1154 way: 2 address: 18593fd3482 victim address: 1fc0cba4c82 data: 0 lru: 15 dirty:
[LLC] lru_victim instr_id: 7947437 replace set: 117 way: 2 address: 18593fce075 victim address: 172d0775075 data: 0 lru: 15 dirty:
[LLC] lru_victim instr_id: 7947703 replace set: 1185 way: 1 address: 18593fd34a1 victim address: 172d0771ca1 data: 0 lru: 15 dirty:
[LLC] lru_victim instr_id: 7947746 replace set: 1158 way: 0 address: 18593fd3486 victim address: 172d0772c86 data: 0 lru: 15 dirty:
[LLC] lru_victim instr_id: 7947790 replace set: 1159 way: 2 address: 18593fd3487 victim address: 172d0775c87 data: 0 lru: 15 dirty:
[LLC] lru_victim instr_id: 7947844 replace set: 1156 way: 3 address: 18593fd3484 victim address: 172d0775c84 data: 0 lru: 15 dirty:
[LLC] lru_victim instr_id: 7948093 replace set: 1162 way: 1 address: 18593fd348a victim address: 172d077648a data: 0 lru: 15 dirty:
[LLC] lru_victim instr_id: 7948367 replace set: 1173 way: 4 address: 18593fd3495 victim address: 1fc0cba3c95 data: 0 lru: 15 dirty:
[LLC] lru_victim instr_id: 7948456 replace set: 1166 way: 0 address: 18593fd348e victim address: 172d0772c8e data: 0 lru: 15 dirty:
[LLC] lru_victim instr_id: 7948547 replace set: 1168 way: 1 address: 18593fd3490 victim address: 1fc0cba4c90 data: 0 lru: 15 dirty:
[LLC] lru_victim instr_id: 7948813 replace set: 1169 way: 2 address: 18593fd3491 victim address: 172d0776491 data: 0 lru: 15 dirty:
[LLC] lru_victim instr_id: 7948836 replace set: 1172 way: 2 address: 18593fd3494 victim address: 1fc0cba3c94 data: 0 lru: 15 dirty:
[LLC] lru_victim instr_id: 7949033 replace set: 1175 way: 2 address: 18593fd3497 victim address: 1fc0cba3c97 data: 0 lru: 15 dirty:
[LLC] lru_victim instr_id: 7949061 replace set: 1187 way: 1 address: 18593fd34a3 victim address: 172d0772ca3 data: 0 lru: 15 dirty:
[LLC] lru_victim instr_id: 7949667 replace set: 1185 way: 2 address: 172d0771ca1 victim address: 172d0772ca1 data: 0 lru: 15 dirty:
[LLC] lru_victim instr_id: 0 replace set: 1611 way: 11 address: 172d0775e4b victim address: 1fc0cba6e4b data: 0 lru: 15 dirty:
[LLC] lru_victim instr_id: 7949875 replace set: 1700 way: 1 address: 172d0775ea4 victim address: 172d0771ea4 data: 0 lru: 15 dirty:
[LLC] lru_victim instr_id: 7949876 replace set: 1699 way: 7 address: 172d0775ea3 victim address: c10ab85ea3 data: 0 lru: 15 dirty:
[LLC] lru_victim instr_id: 7950346 replace set: 343 way: 3 address: 172d0776157 victim address: 172d0773157 data: 0 lru: 15 dirty:
[LLC] lru_victim instr_id: 7950646 replace set: 1384 way: 0 address: 18593fd3568 victim address: 172d0774d68 data: 0 lru: 15 dirty:
[LLC] lru_victim instr_id: 7950769 replace set: 1791 way: 0 address: 172d0775eff victim address: 172d0773eff data: 0 lru: 15 dirty:
[LLC] lru_victim instr_id: 7950772 replace set: 1436 way: 2 address: 18593fd359c victim address: 1fc0cba559c data: 0 lru: 15 dirty:
[LLC] lru_victim instr_id: 7950874 replace set: 1445 way: 1 address: 18593fd35a5 victim address: 172d07755a5 data: 0 lru: 15 dirty:
[LLC] lru_victim instr_id: 7950901 replace set: 1444 way: 1 address: 18593fd35a4 victim address: 172d07765a4 data: 0 lru: 15 dirty:
[LLC] lru_victim instr_id: 0 replace set: 1650 way: 3 address: 172d0772672 victim address: 1fc0cba5672 data: 0 lru: 15 dirty:
[LLC] lru_victim instr_id: 0 replace set: 1653 way: 6 address: 172d0772675 victim address: 1fc0cba9675 data: 0 lru: 15 dirty:
[LLC] lru_victim instr_id: 7951309 replace set: 1463 way: 2 address: 18593fd35b7 victim address: 1fc0cba4db7 data: 0 lru: 15 dirty:
[LLC] lru_victim instr_id: 7951699 replace set: 1454 way: 2 address: 18593fd35ae victim address: 172d07755ae data: 0 lru: 15 dirty:
[LLC] lru_victim instr_id: 7951920 replace set: 1789 way: 1 address: 1fc0cba4efd victim address: 172d07746fd data: 0 lru: 15 dirty:
[LLC] lru_victim instr_id: 7951960 replace set: 1552 way: 1 address: 1fc0cba4610 victim address: 172d0773e10 data: 0 lru: 15 dirty:
[LLC] lru_victim instr_id: 7952020 replace set: 1461 way: 1 address: 18593fd35b5 victim address: 172d07755b5 data: 0 lru: 15 dirty:
[LLC] lru_victim instr_id: 7952067 replace set: 199 way: 0 address: c10ab870c7 victim address: 172d07730c7 data: 0 lru: 15 dirty:
[LLC] lru_victim instr_id: 7952077 replace set: 1465 way: 3 address: 18593fd35b9 victim address: 1fc0cba4db9 data: 0 lru: 15 dirty:
[LLC] lru_victim instr_id: 7952093 replace set: 1466 way: 1 address: 18593fd35ba victim address: 172d07765ba data: 0 lru: 15 dirty:
[LLC] lru_victim instr_id: 7952714 replace set: 192 way: 0 address: c10ab870c0 victim address: 172d07740c0 data: 0 lru: 15 dirty:
[LLC] lru_victim instr_id: 7952746 replace set: 198 way: 0 address: c10ab870c6 victim address: 172d07788c6 data: 0 lru: 15 dirty:
[LLC] lru_victim instr_id: 7952767 replace set: 197 way: 1 address: c10ab870c5 victim address: 172d07788c5 data: 0 lru: 15 dirty:
[LLC] lru_victim instr_id: 7952917 replace set: 201 way: 6 address: c10ab870c9 victim address: 172d07760c9 data: 0 lru: 15 dirty:
[LLC] lru_victim instr_id: 7953137 replace set: 210 way: 1 address: c10ab870d2 victim address: 172d07750d2 data: 0 lru: 15 dirty:
[LLC] lru_victim instr_id: 7953329 replace set: 218 way: 4 address: c10ab870da victim address: 172d07760da data: 0 lru: 15 dirty:
[LLC] lru_victim instr_id: 7954465 replace set: 1467 way: 0 address: 18593fd35bb victim address: 172d0774dbb data: 0 lru: 15 dirty:
[LLC] lru_victim instr_id: 7954599 replace set: 1791 way: 1 address: 1fc0cba4eff victim address: 172d07746ff data: 0 lru: 15 dirty:
[LLC] lru_victim instr_id: 7954858 replace set: 1614 way: 0 address: 18593fd364e victim address: 172d077164e data: 0 lru: 15 dirty:
[LLC] lru_victim instr_id: 7954880 replace set: 244 way: 3 address: c10ab870f4 victim address: 1fc0cba48f4 data: 0 lru: 15 dirty:
[LLC] lru_victim instr_id: 7954903 replace set: 245 way: 0 address: c10ab870f5 victim address: 172d07750f5 data: 0 lru: 15 dirty:
[LLC] lru_victim instr_id: 0 replace set: 1762 way: 4 address: 18593fd36e2 victim address: 1fc0cba66e2 data: 0 lru: 15 dirty:
[LLC] lru_victim instr_id: 0 replace set: 1457 way: 1 address: 172d0776db1 victim address: 172d07755b1 data: 0 lru: 15 dirty:
[LLC] lru_victim instr_id: 0 replace set: 1458 way: 2 address: 172d0776db2 victim address: 172d07765b2 data: 0 lru: 15 dirty:
[LLC] lru_victim instr_id: 0 replace set: 130 way: 1 address: 18593fcd082 victim address: 172d0775082 data: 0 lru: 15 dirty:
[LLC] lru_victim instr_id: 0 replace set: 134 way: 1 address: 18593fcd086 victim address: 172d0775086 data: 0 lru: 15 dirty:
[LLC] lru_victim instr_id: 0 replace set: 194 way: 0 address: 18593fd38c2 victim address: 172d07740c2 data: 0 lru: 15 dirty:
[LLC] lru_victim instr_id: 0 replace set: 195 way: 0 address: 18593fd38c3 victim address: 172d07750c3 data: 0 lru: 15 dirty:
[LLC] lru_victim instr_id: 0 replace set: 196 way: 5 address: 18593fd38c4 victim address: 172d07760c4 data: 0 lru: 15 dirty:
[LLC] lru_victim instr_id: 0 replace set: 197 way: 2 address: 18593fd38c5 victim address: 172d07760c5 data: 0 lru: 15 dirty:
[LLC] lru_victim instr_id: 0 replace set: 199 way: 2 address: 18593fd38c7 victim address: 172d07788c7 data: 0 lru: 15 dirty:
[LLC] lru_victim instr_id: 0 replace set: 198 way: 1 address: 18593fd38c6 victim address: 172d07760c6 data: 0 lru: 15 dirty:
[LLC] lru_victim instr_id: 0 replace set: 200 way: 0 address: 18593fd38c8 victim address: 172d07750c8 data: 0 lru: 15 dirty:
[LLC] lru_victim instr_id: 0 replace set: 394 way: 0 address: 18593fd398a victim address: 172d077418a data: 0 lru: 15 dirty:
[...]
[LLC] lru_victim instr_id: 10289680 replace set: 1753 way: 4 address: 169fd7bed9 victim address: 172d0776ed9 data: 0 lru: 15 dirty:
[LLC] lru_victim instr_id: 10289682 replace set: 917 way: 0 address: 172d0777b95 victim address: 172d0772b95 data: 0 lru: 15 dirty:
[LLC] lru_victim instr_id: 10289685 replace set: 1466 way: 9 address: 18593fd05ba victim address: c10ab8c5ba data: 0 lru: 15 dirty:
[LLC] lru_victim instr_id: 10290394 replace set: 1798 way: 2 address: 1fc0cba7706 victim address: 1fc0cba8706 data: 0 lru: 15 dirty:
[LLC] lru_victim instr_id: 10290405 replace set: 1799 way: 3 address: 1fc0cba7707 victim address: 1fc0cba8707 data: 0 lru: 15 dirty:
[LLC] lru_victim instr_id: 10290485 replace set: 1800 way: 0 address: 1fc0cba7708 victim address: 172d0774708 data: 0 lru: 15 dirty:
[LLC] lru_victim instr_id: 10290782 replace set: 1802 way: 0 address: 1fc0cba770a victim address: 1fc0cba3f0a data: 0 lru: 15 dirty:
[LLC] lru_victim instr_id: 10291870 replace set: 1103 way: 2 address: 172d077644f victim address: 1fc0cba3c4f data: 0 lru: 15 dirty:
[LLC] lru_victim instr_id: 10291929 replace set: 1113 way: 2 address: 172d0776459 victim address: 1fc0cba5c59 data: 0 lru: 15 dirty:
[LLC] lru_victim instr_id: 10292045 replace set: 1395 way: 0 address: 169fd7bd73 victim address: 172d0774573 data: 0 lru: 15 dirty:
[LLC] lru_victim instr_id: 10292211 replace set: 1387 way: 4 address: 169fd7bd6b victim address: 172d077156b data: 0 lru: 15 dirty:
[LLC] lru_victim instr_id: 10292247 replace set: 1388 way: 7 address: 169fd7bd6c victim address: 1fc0cbaad6c data: 0 lru: 15 dirty:
[LLC] lru_victim instr_id: 10292263 replace set: 1389 way: 0 address: 169fd7bd6d victim address: 172d077456d data: 0 lru: 15 dirty:
[LLC] lru_victim instr_id: 10292391 replace set: 1394 way: 0 address: 169fd7bd72 victim address: 172d0774572 data: 0 lru: 15 dirty:
[LLC] lru_victim instr_id: 10292400 replace set: 1675 way: 4 address: 172d077668b victim address: 1fc0cba968b data: 0 lru: 15 dirty:
[LLC] lru_victim instr_id: 10292553 replace set: 995 way: 7 address: 172d07763e3 victim address: 1fc0cbaabe3 data: 0 lru: 15 dirty:
[LLC] lru_victim instr_id: 10292566 replace set: 1563 way: 4 address: 169fd7be1b victim address: 1fc0cbaa61b data: 0 lru: 15 dirty:
[LLC] lru_victim instr_id: 10292575 replace set: 1564 way: 6 address: 169fd7be1c victim address: 172d0777e1c data: 0 lru: 15 dirty:
[LLC] lru_victim instr_id: 10292655 replace set: 1481 way: 0 address: 1fc0cba75c9 victim address: 172d07755c9 data: 0 lru: 15 dirty:
[LLC] lru_victim instr_id: 10292825 replace set: 1295 way: 2 address: 172d077650f victim address: 172d077350f data: 0 lru: 15 dirty:
[LLC] lru_victim instr_id: 10292826 replace set: 1589 way: 1 address: 169fd7be35 victim address: 172d0775635 data: 0 lru: 15 dirty:
[LLC] lru_victim instr_id: 10292980 replace set: 835 way: 3 address: 172d0776b43 victim address: 172d0774b43 data: 0 lru: 15 dirty:
[LLC] lru_victim instr_id: 10293029 replace set: 1598 way: 2 address: 169fd7be3e victim address: 1fc0cbaa63e data: 0 lru: 15 dirty:
[LLC] lru_victim instr_id: 10293173 replace set: 1594 way: 7 address: 169fd7be3a victim address: 1fc0cbaa63a data: 0 lru: 15 dirty:
[LLC] lru_victim instr_id: 10293185 replace set: 1593 way: 6 address: 169fd7be39 victim address: 172d0775e39 data: 0 lru: 15 dirty:
[LLC] lru_victim instr_id: 10293195 replace set: 1590 way: 6 address: 169fd7be36 victim address: c10ab8b636 data: 0 lru: 15 dirty:
[LLC] lru_victim instr_id: 10293211 replace set: 1591 way: 3 address: 169fd7be37 victim address: 1fc0cba9637 data: 0 lru: 15 dirty:
[LLC] lru_victim instr_id: 10293254 replace set: 1592 way: 5 address: 169fd7be38 victim address: c10ab87638 data: 0 lru: 15 dirty:
[LLC] lru_victim instr_id: 10293329 replace set: 1595 way: 5 address: 169fd7be3b victim address: 1fc0cba963b data: 0 lru: 15 dirty:
[LLC] lru_victim instr_id: 10293380 replace set: 1903 way: 5 address: 169fd7bf6f victim address: 162973dbf6f data: 0 lru: 15 dirty:
[LLC] lru_victim instr_id: 10293490 replace set: 834 way: 5 address: 172d0776b42 victim address: 1fc0cba3b42 data: 0 lru: 15 dirty:
[LLC] lru_victim instr_id: 10294192 replace set: 1484 way: 2 address: 1fc0cba75cc victim address: 1fc0cba5dcc data: 0 lru: 15 dirty:
[LLC] lru_victim instr_id: 10294299 replace set: 849 way: 4 address: 172d0776b51 victim address: 1fc0cba4b51 data: 0 lru: 15 dirty:
[LLC] lru_victim instr_id: 10294326 replace set: 838 way: 7 address: 172d0776b46 victim address: c10ab8ab46 data: 0 lru: 15 dirty:
[LLC] lru_victim instr_id: 10294350 replace set: 837 way: 7 address: 172d0776b45 victim address: c10ab89b45 data: 0 lru: 15 dirty:
[LLC] lru_victim instr_id: 10294420 replace set: 839 way: 3 address: 172d0776b47 victim address: 1fc0cba4b47 data: 0 lru: 15 dirty:
[LLC] lru_victim instr_id: 10294464 replace set: 840 way: 2 address: 172d0776b48 victim address: 1fc0cbaa348 data: 0 lru: 15 dirty:
[LLC] lru_victim instr_id: 10294541 replace set: 841 way: 7 address: 172d0776b49 victim address: c10ab86349 data: 0 lru: 15 dirty:
[LLC] lru_victim instr_id: 10294738 replace set: 845 way: 5 address: 172d0776b4d victim address: 1fc0cba834d data: 0 lru: 15 dirty:
[LLC] lru_victim instr_id: 10294842 replace set: 846 way: 8 address: 172d0776b4e victim address: c10ab89b4e data: 0 lru: 15 dirty:
[LLC] lru_victim instr_id: 10294811 replace set: 876 way: 1 address: 172d0773b6c victim address: 172d0774b6c data: 0 lru: 15 dirty:
[LLC] lru_victim instr_id: 10294973 replace set: 854 way: 6 address: 172d0776b56 victim address: 1fc0cba4b56 data: 0 lru: 15 dirty:
[LLC] lru_victim instr_id: 10295004 replace set: 856 way: 8 address: 172d0776b58 victim address: c10ab85358 data: 0 lru: 15 dirty:
[LLC] lru_victim instr_id: 10295016 replace set: 857 way: 2 address: 172d0776b59 victim address: 172d0774b59 data: 0 lru: 15 dirty:
[LLC] lru_victim instr_id: 10295056 replace set: 859 way: 8 address: 172d0776b5b victim address: c10ab8635b data: 0 lru: 15 dirty:
[LLC] lru_victim instr_id: 10295179 replace set: 858 way: 8 address: 172d0776b5a victim address: c10ab8635a data: 0 lru: 15 dirty:
[LLC] lru_victim instr_id: 10295180 replace set: 861 way: 10 address: 172d0776b5d victim address: c10ab8a35d data: 0 lru: 15 dirty:
[LLC] lru_victim instr_id: 10295198 replace set: 863 way: 6 address: 172d0776b5f victim address: 1fc0cba635f data: 0 lru: 15 dirty:
[LLC] lru_victim instr_id: 10295319 replace set: 864 way: 5 address: 172d0776b60 victim address: c10ab85360 data: 0 lru: 15 dirty:
[LLC] lru_victim instr_id: 10295362 replace set: 855 way: 0 address: 172d0776b57 victim address: 172d0771357 data: 0 lru: 15 dirty:
[LLC] lru_victim instr_id: 10295417 replace set: 851 way: 0 address: 172d0776b53 victim address: 172d0772b53 data: 0 lru: 15 dirty:
[LLC] lru_victim instr_id: 10295442 replace set: 850 way: 1 address: 172d0776b52 victim address: 172d0774b52 data: 0 lru: 15 dirty:
[LLC] lru_victim instr_id: 10295452 replace set: 853 way: 4 address: 172d0776b55 victim address: 1fc0cba5b55 data: 0 lru: 15 dirty:
[LLC] lru_victim instr_id: 10295505 replace set: 1888 way: 1 address: 169fd7bf60 victim address: 172d0774760 data: 0 lru: 15 dirty:
[LLC] lru_victim instr_id: 10295844 replace set: 1892 way: 0 address: 169fd7bf64 victim address: 172d0773f64 data: 0 lru: 15 dirty:
[LLC] lru_victim instr_id: 10295898 replace set: 1889 way: 3 address: 169fd7bf61 victim address: 1fc0cba4761 data: 0 lru: 15 dirty:
[LLC] lru_victim instr_id: 10296711 replace set: 855 way: 8 address: 18593fceb57 victim address: 1fc0cba6b57 data: 0 lru: 15 dirty:
[LLC] lru_victim instr_id: 10296716 replace set: 628 way: 4 address: 1352da24274 victim address: c10ab85a74 data: 0 lru: 15 dirty:
[LLC] lru_victim instr_id: 10297299 replace set: 1911 way: 3 address: 169fd7bf77 victim address: 1fc0cba9777 data: 0 lru: 15 dirty:
[LLC] lru_victim instr_id: 10297381 replace set: 1901 way: 3 address: 169fd7bf6d victim address: f3b8ff3f6d data: 0 lru: 15 dirty:
[LLC] lru_victim instr_id: 10297458 replace set: 832 way: 1 address: 172d0776b40 victim address: 172d0774b40 data: 0 lru: 15 dirty:
[LLC] lru_victim instr_id: 10297684 replace set: 1908 way: 0 address: 169fd7bf74 victim address: 172d0773f74 data: 0 lru: 15 dirty:
[LLC] lru_victim instr_id: 10297727 replace set: 1909 way: 0 address: 169fd7bf75 victim address: 172d0774775 data: 0 lru: 15 dirty:
[LLC] lru_victim instr_id: 10297758 replace set: 1912 way: 5 address: 169fd7bf78 victim address: f3b8ff3f78 data: 0 lru: 15 dirty:
[LLC] lru_victim instr_id: 10297781 replace set: 1913 way: 4 address: 169fd7bf79 victim address: f3b8ff3f79 data: 0 lru: 15 dirty:
[LLC] lru_victim instr_id: 10297862 replace set: 106 way: 2 address: 169fd7c06a victim address: 1fc0cba486a data: 0 lru: 15 dirty:
[LLC] lru_victim instr_id: 10297950 replace set: 1445 way: 3 address: 18593fd15a5 victim address: 1fc0cba4da5 data: 0 lru: 15 dirty:
[LLC] lru_victim instr_id: 10297968 replace set: 1446 way: 3 address: 18593fd15a6 victim address: 1fc0cba4da6 data: 0 lru: 15 dirty:
[LLC] lru_victim instr_id: 0 replace set: 1625 way: 2 address: 172d0773659 victim address: 172d0774e59 data: 0 lru: 15 dirty:
[LLC] lru_victim instr_id: 0 replace set: 1626 way: 7 address: 172d077365a victim address: c10ab8865a data: 0 lru: 15 dirty:
[LLC] lru_victim instr_id: 0 replace set: 1636 way: 8 address: 172d0773664 victim address: c10ab88664 data: 0 lru: 15 dirty:
[LLC] lru_victim instr_id: 0 replace set: 1637 way: 7 address: 172d0773665 victim address: 1fc0cba9665 data: 0 lru: 15 dirty:
[LLC] lru_victim instr_id: 0 replace set: 1638 way: 4 address: 172d0773666 victim address: 1fc0cba7666 data: 0 lru: 15 dirty:
[LLC] lru_victim instr_id: 10298676 replace set: 1597 way: 5 address: 1fc0cba563d victim address: c10ab8763d data: 0 lru: 15 dirty:
[LLC] lru_victim instr_id: 0 replace set: 1627 way: 6 address: 172d077365b victim address: c10ab8865b data: 0 lru: 15 dirty:
[LLC] lru_victim instr_id: 0 replace set: 1628 way: 7 address: 172d077365c victim address: c10ab8865c data: 0 lru: 15 dirty:
[LLC] lru_victim instr_id: 0 replace set: 1629 way: 2 address: 172d077365d victim address: 1fc0cba965d data: 0 lru: 15 dirty:
[LLC] lru_victim instr_id: 0 replace set: 1652 way: 7 address: 172d0773674 victim address: 1fc0cba6e74 data: 0 lru: 15 dirty:
[LLC] lru_victim instr_id: 0 replace set: 1632 way: 1 address: 172d0773660 victim address: 1fc0cba5e60 data: 0 lru: 15 dirty:
[LLC] lru_victim instr_id: 0 replace set: 1633 way: 7 address: 172d0773661 victim address: c10ab8be61 data: 0 lru: 15 dirty:
[LLC] lru_victim instr_id: 0 replace set: 1635 way: 5 address: 172d0773663 victim address: 1fc0cba7e63 data: 0 lru: 15 dirty:
[LLC] lru_victim instr_id: 10299643 replace set: 1395 way: 1 address: c10ab84d73 victim address: 172d0771573 data: 0 lru: 15 dirty:
[LLC] lru_victim instr_id: 0 replace set: 4 way: 7 address: 172d0776004 victim address: c10ab8b004 data: 0 lru: 15 dirty:
[LLC] lru_victim instr_id: 10300418 replace set: 1386 way: 0 address: 169fd7bd6a victim address: 172d077456a data: 0 lru: 15 dirty:
[LLC] lru_victim instr_id: 10300692 replace set: 1399 way: 1 address: 169fd7bd77 victim address: 172d0774577 data: 0 lru: 15 dirty:
[LLC] lru_victim instr_id: 10300762 replace set: 1404 way: 7 address: 169fd7bd7c victim address: 1fc0cba8d7c data: 0 lru: 15 dirty:
[LLC] lru_victim instr_id: 10300922 replace set: 1403 way: 8 address: 169fd7bd7b victim address: 1fc0cbaad7b data: 0 lru: 15 dirty:
[LLC] lru_victim instr_id: 10300949 replace set: 1676 way: 3 address: 172d077668c victim address: 1fc0cba5e8c data: 0 lru: 15 dirty:
[LLC] lru_victim instr_id: 10301197 replace set: 1595 way: 6 address: 1fc0cba563b victim address: 1fc0cbaa63b data: 0 lru: 15 dirty:
[LLC] lru_victim instr_id: 0 replace set: 134 way: 8 address: 172d0771086 victim address: c10ab8a886 data: 0 lru: 15 dirty:
[LLC] lru_victim instr_id: 0 replace set: 135 way: 1 address: 172d0771087 victim address: 172d0775087 data: 0 lru: 15 dirty:
[LLC] lru_victim instr_id: 0 replace set: 136 way: 3 address: 172d0771088 victim address: 1fc0cba4888 data: 0 lru: 15 dirty:
[LLC] lru_victim instr_id: 0 replace set: 1731 way: 8 address: 172d07726c3 victim address: c10ab856c3 data: 0 lru: 15 dirty:
[LLC] lru_victim instr_id: 0 replace set: 1733 way: 2 address: 172d07726c5 victim address: 1fc0cba56c5 data: 0 lru: 15 dirty:
[LLC] lru_victim instr_id: 0 replace set: 1734 way: 2 address: 172d07726c6 victim address: 1fc0cba6ec6 data: 0 lru: 15 dirty:
[LLC] lru_victim instr_id: 10367552 replace set: 340 way: 9 address: 172d0771154 victim address: c10ab86154 data: 0 lru: 15 dirty:
[LLC] lru_victim instr_id: 10379029 replace set: 877 way: 2 address: 235abcc936d victim address: 172d077136d data: 0 lru: 15 dirty:
[LLC] lru_victim instr_id: 10379056 replace set: 869 way: 3 address: 235abcc9365 victim address: 1fc0cba4b65 data: 0 lru: 15 dirty:
[LLC] lru_victim instr_id: 10379079 replace set: 870 way: 0 address: 235abcc9366 victim address: 172d0772b66 data: 0 lru: 15 dirty:
[LLC] lru_victim instr_id: 10379129 replace set: 871 way: 2 address: 235abcc9367 victim address: c10ab85367 data: 0 lru: 15 dirty:
[LLC] lru_victim instr_id: 10379202 replace set: 874 way: 1 address: 235abcc936a victim address: 172d0774b6a data: 0 lru: 15 dirty:
[LLC] lru_victim instr_id: 10379731 replace set: 866 way: 2 address: 235abcc9362 victim address: 172d0776b62 data: 0 lru: 15 dirty:
[LLC] lru_victim instr_id: 10379790 replace set: 876 way: 2 address: 235abcc936c victim address: 172d077136c data: 0 lru: 15 dirty:
[LLC] lru_victim instr_id: 10380707 replace set: 889 way: 3 address: 235abcc9379 victim address: c10ab86379 data: 0 lru: 15 dirty:
[LLC] lru_victim instr_id: 10381333 replace set: 880 way: 5 address: 235abcc9370 victim address: c10ab85370 data: 0 lru: 15 dirty:
[LLC] lru_victim instr_id: 10381611 replace set: 1557 way: 2 address: 1fc0cba5615 victim address: 172d0772e15 data: 0 lru: 15 dirty:
[LLC] lru_victim instr_id: 10381631 replace set: 895 way: 2 address: 235abcc937f victim address: 172d0774b7f data: 0 lru: 15 dirty:
[LLC] lru_victim instr_id: 10381668 replace set: 891 way: 2 address: 235abcc937b victim address: c10ab8537b data: 0 lru: 15 dirty:
[LLC] lru_victim instr_id: 10381681 replace set: 890 way: 2 address: 235abcc937a victim address: 172d0772b7a data: 0 lru: 15 dirty:
[LLC] lru_victim instr_id: 10381877 replace set: 1412 way: 2 address: 235abcc9584 victim address: 172d0776584 data: 0 lru: 15 dirty:
[LLC] lru_victim instr_id: 10550314 replace set: 1586 way: 7 address: 172d0772e32 victim address: c10ab89632 data: 0 lru: 15 dirty:
[LLC] lru_victim instr_id: 10566169 replace set: 513 way: 0 address: 172d0771a01 victim address: 172d0773a01 data: 0 lru: 15 dirty:
[LLC] lru_victim instr_id: 10566210 replace set: 216 way: 1 address: 169fd7c0d8 victim address: 172d07738d8 data: 0 lru: 15 dirty:
[LLC] lru_victim instr_id: 10566217 replace set: 217 way: 3 address: 169fd7c0d9 victim address: 1fc0cba48d9 data: 0 lru: 15 dirty:
[LLC] lru_victim instr_id: 10566238 replace set: 218 way: 13 address: 169fd7c0da victim address: 1fc0cbaa0da data: 0 lru: 15 dirty:
[LLC] lru_victim instr_id: 10574350 replace set: 1700 way: 5 address: 1fc0cba86a4 victim address: c10ab85ea4 data: 0 lru: 15 dirty:
[LLC] lru_victim instr_id: 10642403 replace set: 947 way: 2 address: 235abcc93b3 victim address: c10ab85bb3 data: 0 lru: 15 dirty:
[LLC] lru_victim instr_id: 10642490 replace set: 940 way: 5 address: 235abcc93ac victim address: c10ab85bac data: 0 lru: 15 dirty:
[LLC] lru_victim instr_id: 10642527 replace set: 939 way: 4 address: 235abcc93ab victim address: cec1c96bab data: 0 lru: 15 dirty:
[LLC] lru_victim instr_id: 10642567 replace set: 941 way: 2 address: 235abcc93ad victim address: 1fc0cba6bad data: 0 lru: 15 dirty:
[LLC] lru_victim instr_id: 10642764 replace set: 945 way: 3 address: 235abcc93b1 victim address: c10ab85bb1 data: 0 lru: 15 dirty:
[LLC] lru_victim instr_id: 10642796 replace set: 944 way: 0 address: 235abcc93b0 victim address: 1fc0cba73b0 data: 0 lru: 15 dirty:
[LLC] lru_victim instr_id: 10934306 replace set: 1787 way: 5 address: 1352da23efb victim address: 1fc0cba6efb data: 0 lru: 15 dirty:
[LLC] lru_victim instr_id: 10937995 replace set: 1468 way: 5 address: 235abcc95bc victim address: 1fc0cba7dbc data: 0 lru: 15 dirty:
[LLC] lru_victim instr_id: 10938008 replace set: 1467 way: 9 address: 235abcc95bb victim address: 1fc0cba75bb data: 0 lru: 15 dirty:
[LLC] lru_victim instr_id: 10938018 replace set: 1469 way: 7 address: 235abcc95bd victim address: 1fc0cba9dbd data: 0 lru: 15 dirty:
[LLC] lru_victim instr_id: 10938172 replace set: 1471 way: 1 address: 235abcc95bf victim address: 172d07755bf data: 0 lru: 15 dirty:
[LLC] lru_victim instr_id: 10938195 replace set: 1465 way: 11 address: 235abcc95b9 victim address: 1fc0cba5db9 data: 0 lru: 15 dirty:
[LLC] lru_victim instr_id: 10938615 replace set: 1497 way: 0 address: 172d07785d9 victim address: 172d07745d9 data: 0 lru: 15 dirty:
[LLC] lru_victim instr_id: 10938799 replace set: 1481 way: 6 address: 172d07785c9 victim address: c10ab865c9 data: 0 lru: 15 dirty:
[LLC] lru_victim instr_id: 10938836 replace set: 1480 way: 3 address: 172d07785c8 victim address: f3b8ff3dc8 data: 0 lru: 15 dirty:
Finished CPU 0 instructions: 10000000 cycles: 18610752 cumulative IPC: 0.537324 (Simulation time: 0 hr 0 min 12 sec) 

ChampSim completed all CPUs

Region of Interest Statistics

CPU 0 cumulative IPC: 0.537324 instructions: 10000000 cycles: 18610752
L1D TOTAL     ACCESS:    3600284  HIT:    3523518  MISS:      76766
L1D LOAD      ACCESS:    2012677  HIT:    1942892  MISS:      69785
L1D RFO       ACCESS:    1587607  HIT:    1580626  MISS:       6981
L1D PREFETCH  ACCESS:          0  HIT:          0  MISS:          0
L1D WRITEBACK ACCESS:          0  HIT:          0  MISS:          0
L1D PREFETCH  REQUESTED:          0  ISSUED:          0  USEFUL:          0  USELESS:          0
L1D AVERAGE MISS LATENCY: 76.2499 cycles
L1I TOTAL     ACCESS:    1901831  HIT:    1828302  MISS:      73529
L1I LOAD      ACCESS:    1901831  HIT:    1828302  MISS:      73529
L1I RFO       ACCESS:          0  HIT:          0  MISS:          0
L1I PREFETCH  ACCESS:          0  HIT:          0  MISS:          0
L1I WRITEBACK ACCESS:          0  HIT:          0  MISS:          0
L1I PREFETCH  REQUESTED:          0  ISSUED:          0  USEFUL:          0  USELESS:          0
L1I AVERAGE MISS LATENCY: 22.0325 cycles
L2C TOTAL     ACCESS:     172457  HIT:     135607  MISS:      36850
L2C LOAD      ACCESS:     143311  HIT:     109016  MISS:      34295
L2C RFO       ACCESS:       6980  HIT:       4486  MISS:       2494
L2C PREFETCH  ACCESS:          0  HIT:          0  MISS:          0
L2C WRITEBACK ACCESS:      22166  HIT:      22105  MISS:         61
L2C PREFETCH  REQUESTED:          0  ISSUED:          0  USEFUL:          0  USELESS:          0
L2C AVERAGE MISS LATENCY: 142.71 cycles
LLC TOTAL     ACCESS:      42171  HIT:      11227  MISS:      30944
LLC LOAD      ACCESS:      34295  HIT:       5383  MISS:      28912
LLC RFO       ACCESS:       2494  HIT:        469  MISS:       2025
LLC PREFETCH  ACCESS:          0  HIT:          0  MISS:          0
LLC WRITEBACK ACCESS:       5382  HIT:       5375  MISS:          7
LLC PREFETCH  REQUESTED:          0  ISSUED:          0  USEFUL:          0  USELESS:          0
LLC AVERAGE MISS LATENCY: 134.108 cycles
Major fault: 0 Minor fault: 2714

DRAM Statistics
 CHANNEL 0
 RQ ROW_BUFFER_HIT:      11681  ROW_BUFFER_MISS:      19256
 DBUS_CONGESTED:       1127
 WQ ROW_BUFFER_HIT:        171  ROW_BUFFER_MISS:        276  FULL:          0

 AVG_CONGESTED_CYCLE: 6

CPU 0 Branch Prediction Accuracy: 95.4821% MPKI: 9.4899 Average ROB Occupancy at Mispredict: 51.1589

Branch types
NOT_BRANCH: 7899148 78.9915%
BRANCH_DIRECT_JUMP: 154928 1.54928%
BRANCH_INDIRECT: 52876 0.52876%
BRANCH_CONDITIONAL: 1558907 15.5891%
BRANCH_DIRECT_CALL: 119418 1.19418%
BRANCH_INDIRECT_CALL: 47475 0.47475%
BRANCH_RETURN: 166899 1.66899%
BRANCH_OTHER: 0 0%

